/*---------------------------------------------------------------------------*\
| =========                 |                                                 |
| \\      /  F ield         | OpenFOAM: The Open Source CFD Toolbox           |
|  \\    /   O peration     | Version:  2412                                  |
|   \\  /    A nd           | Website:  www.openfoam.com                      |
|    \\/     M anipulation  |                                                 |
\*---------------------------------------------------------------------------*/
Build  : _2c4871ff-20250317 OPENFOAM=2412 version=2412
Arch   : "LSB;label=32;scalar=64"
Exec   : simpleFoam
Date   : Apr 23 2025
Time   : 13:47:58
Host   : SOSA-LAPTOP
PID    : 159603
I/O    : uncollated
Case   : /home/solim/OpenFOAM/solim-v2412/run/bellmouth-2D-simulation/outputs/ELL-2-2-30-30-10-5
nProcs : 1
trapFpe: Floating point exception trapping enabled (FOAM_SIGFPE).
fileModificationChecking : Monitoring run-time modified files using timeStampMaster (fileModificationSkew 5, maxFileModificationPolls 20)
allowSystemOperations : Allowing user-supplied system call operations

// * * * * * * * * * * * * * * * * * * * * * * * * * * * * * * * * * * * * * //
Create time

Create mesh for time = 0


SIMPLE: convergence criteria
    field p	 tolerance 0.0001
    field U	 tolerance 1e-06

Reading field p

Reading field U

Reading/calculating face flux field phi

Selecting incompressible transport model Newtonian
Selecting turbulence model type laminar
Selecting laminar stress model Stokes
No MRF models present

No finite volume options present

Starting time loop

wallShearStress wallShearStress:
    processing all (1) wall patches

Time = 1

smoothSolver:  Solving for Ux, Initial residual = 0, Final residual = 0, No Iterations 0
smoothSolver:  Solving for Uy, Initial residual = 0, Final residual = 0, No Iterations 0
GAMG:  Solving for p, Initial residual = 1, Final residual = 0.017161, No Iterations 1
GAMG:  Solving for p, Initial residual = 1.76383e-05, Final residual = 8.86327e-07, No Iterations 2
GAMG:  Solving for p, Initial residual = 2.91171e-06, Final residual = 1.7812e-07, No Iterations 3
time step continuity errors : sum local = 0.00254195, global = 0.000145448, cumulative = 0.000145448
ExecutionTime = 2.39 s  ClockTime = 3 s

Time = 2

smoothSolver:  Solving for Ux, Initial residual = 0.0122501, Final residual = 0.000742534, No Iterations 1
smoothSolver:  Solving for Uy, Initial residual = 0.0338614, Final residual = 0.00218195, No Iterations 1
GAMG:  Solving for p, Initial residual = 0.000590868, Final residual = 1.80401e-05, No Iterations 1
GAMG:  Solving for p, Initial residual = 1.72707e-05, Final residual = 1.10292e-06, No Iterations 5
GAMG:  Solving for p, Initial residual = 6.83644e-06, Final residual = 2.96957e-07, No Iterations 1
time step continuity errors : sum local = 0.000232551, global = 1.29489e-05, cumulative = 0.000158396
ExecutionTime = 3.41 s  ClockTime = 4 s

Time = 3

smoothSolver:  Solving for Ux, Initial residual = 0.0113147, Final residual = 0.000663525, No Iterations 1
smoothSolver:  Solving for Uy, Initial residual = 0.0439078, Final residual = 0.00259848, No Iterations 1
GAMG:  Solving for p, Initial residual = 5.48231e-05, Final residual = 2.93399e-06, No Iterations 1
GAMG:  Solving for p, Initial residual = 4.944e-06, Final residual = 3.71479e-07, No Iterations 5
GAMG:  Solving for p, Initial residual = 5.46693e-06, Final residual = 3.52474e-07, No Iterations 1
time step continuity errors : sum local = 0.000208933, global = -1.99181e-05, cumulative = 0.000138478
ExecutionTime = 4.45 s  ClockTime = 5 s

Time = 4

smoothSolver:  Solving for Ux, Initial residual = 0.00712325, Final residual = 0.00038857, No Iterations 1
smoothSolver:  Solving for Uy, Initial residual = 0.025101, Final residual = 0.00158557, No Iterations 1
GAMG:  Solving for p, Initial residual = 4.28361e-05, Final residual = 1.26563e-06, No Iterations 1
GAMG:  Solving for p, Initial residual = 2.67952e-06, Final residual = 2.42357e-07, No Iterations 4
GAMG:  Solving for p, Initial residual = 1.9076e-06, Final residual = 1.73072e-07, No Iterations 1
time step continuity errors : sum local = 9.35064e-05, global = -8.72231e-06, cumulative = 0.000129756
ExecutionTime = 5.41 s  ClockTime = 6 s

Time = 5

smoothSolver:  Solving for Ux, Initial residual = 0.005567, Final residual = 0.000284398, No Iterations 1
smoothSolver:  Solving for Uy, Initial residual = 0.0203766, Final residual = 0.00125812, No Iterations 1
GAMG:  Solving for p, Initial residual = 2.91867e-05, Final residual = 5.91826e-07, No Iterations 1
GAMG:  Solving for p, Initial residual = 1.45673e-06, Final residual = 8.82764e-08, No Iterations 2
GAMG:  Solving for p, Initial residual = 2.28179e-07, Final residual = 1.90779e-08, No Iterations 3
time step continuity errors : sum local = 1.05216e-05, global = 5.53378e-07, cumulative = 0.000130309
ExecutionTime = 6.36 s  ClockTime = 7 s

Time = 6

smoothSolver:  Solving for Ux, Initial residual = 0.00462947, Final residual = 0.000229763, No Iterations 1
smoothSolver:  Solving for Uy, Initial residual = 0.0175922, Final residual = 0.00105358, No Iterations 1
GAMG:  Solving for p, Initial residual = 1.81474e-05, Final residual = 3.59327e-07, No Iterations 1
GAMG:  Solving for p, Initial residual = 8.67408e-07, Final residual = 8.07117e-08, No Iterations 2
GAMG:  Solving for p, Initial residual = 1.94414e-07, Final residual = 1.45371e-08, No Iterations 4
time step continuity errors : sum local = 8.61097e-06, global = 4.47442e-07, cumulative = 0.000130757
ExecutionTime = 7.38 s  ClockTime = 8 s

Time = 7

smoothSolver:  Solving for Ux, Initial residual = 0.00402807, Final residual = 0.000197158, No Iterations 1
smoothSolver:  Solving for Uy, Initial residual = 0.0158469, Final residual = 0.000923193, No Iterations 1
GAMG:  Solving for p, Initial residual = 1.25895e-05, Final residual = 2.20228e-07, No Iterations 1
GAMG:  Solving for p, Initial residual = 5.477e-07, Final residual = 3.04971e-08, No Iterations 2
GAMG:  Solving for p, Initial residual = 8.76783e-08, Final residual = 6.13345e-09, No Iterations 4
time step continuity errors : sum local = 3.77861e-06, global = 2.07845e-07, cumulative = 0.000130965
ExecutionTime = 8.39 s  ClockTime = 9 s

Time = 8

smoothSolver:  Solving for Ux, Initial residual = 0.00363264, Final residual = 0.000176721, No Iterations 1
smoothSolver:  Solving for Uy, Initial residual = 0.0145285, Final residual = 0.000843543, No Iterations 1
GAMG:  Solving for p, Initial residual = 1.02003e-05, Final residual = 1.60854e-07, No Iterations 1
GAMG:  Solving for p, Initial residual = 3.98306e-07, Final residual = 1.99648e-08, No Iterations 2
GAMG:  Solving for p, Initial residual = 6.30269e-08, Final residual = 5.54388e-09, No Iterations 3
time step continuity errors : sum local = 3.45445e-06, global = 1.8837e-07, cumulative = 0.000131153
ExecutionTime = 9.37 s  ClockTime = 10 s

Time = 9

smoothSolver:  Solving for Ux, Initial residual = 0.0033551, Final residual = 0.000161697, No Iterations 1
smoothSolver:  Solving for Uy, Initial residual = 0.0133488, Final residual = 0.000782791, No Iterations 1
GAMG:  Solving for p, Initial residual = 8.84518e-06, Final residual = 1.38729e-07, No Iterations 1
GAMG:  Solving for p, Initial residual = 3.24534e-07, Final residual = 1.70042e-08, No Iterations 2
GAMG:  Solving for p, Initial residual = 5.32087e-08, Final residual = 4.57912e-09, No Iterations 3
time step continuity errors : sum local = 2.91404e-06, global = 1.56853e-07, cumulative = 0.00013131
ExecutionTime = 10.35 s  ClockTime = 11 s

Time = 10

smoothSolver:  Solving for Ux, Initial residual = 0.00313555, Final residual = 0.000150376, No Iterations 1
smoothSolver:  Solving for Uy, Initial residual = 0.0124835, Final residual = 0.00073026, No Iterations 1
GAMG:  Solving for p, Initial residual = 7.77857e-06, Final residual = 1.22457e-07, No Iterations 1
GAMG:  Solving for p, Initial residual = 2.80942e-07, Final residual = 1.58638e-08, No Iterations 2
GAMG:  Solving for p, Initial residual = 4.64587e-08, Final residual = 4.60598e-09, No Iterations 3
time step continuity errors : sum local = 3.00881e-06, global = 1.70179e-07, cumulative = 0.00013148
ExecutionTime = 11.31 s  ClockTime = 12 s

Time = 11

smoothSolver:  Solving for Ux, Initial residual = 0.00295843, Final residual = 0.000140858, No Iterations 1
smoothSolver:  Solving for Uy, Initial residual = 0.0117922, Final residual = 0.000670673, No Iterations 1
GAMG:  Solving for p, Initial residual = 6.8136e-06, Final residual = 1.08903e-07, No Iterations 1
GAMG:  Solving for p, Initial residual = 2.45079e-07, Final residual = 1.44523e-08, No Iterations 2
GAMG:  Solving for p, Initial residual = 4.22686e-08, Final residual = 2.20725e-09, No Iterations 4
time step continuity errors : sum local = 1.48387e-06, global = 7.95987e-08, cumulative = 0.00013156
ExecutionTime = 12.38 s  ClockTime = 13 s

Time = 12

smoothSolver:  Solving for Ux, Initial residual = 0.00280155, Final residual = 0.000132652, No Iterations 1
smoothSolver:  Solving for Uy, Initial residual = 0.0111623, Final residual = 0.000606122, No Iterations 1
GAMG:  Solving for p, Initial residual = 5.8125e-06, Final residual = 9.50426e-08, No Iterations 1
GAMG:  Solving for p, Initial residual = 2.07624e-07, Final residual = 1.25723e-08, No Iterations 2
GAMG:  Solving for p, Initial residual = 3.70866e-08, Final residual = 2.73519e-09, No Iterations 3
time step continuity errors : sum local = 1.89694e-06, global = 2.09416e-07, cumulative = 0.000131769
ExecutionTime = 13.32 s  ClockTime = 14 s

Time = 13

smoothSolver:  Solving for Ux, Initial residual = 0.00269123, Final residual = 0.00012632, No Iterations 1
smoothSolver:  Solving for Uy, Initial residual = 0.0105992, Final residual = 0.000551159, No Iterations 1
GAMG:  Solving for p, Initial residual = 4.97543e-06, Final residual = 7.85549e-08, No Iterations 1
GAMG:  Solving for p, Initial residual = 1.78784e-07, Final residual = 1.03662e-08, No Iterations 2
GAMG:  Solving for p, Initial residual = 3.22084e-08, Final residual = 3.03676e-09, No Iterations 3
time step continuity errors : sum local = 2.17131e-06, global = 2.29612e-07, cumulative = 0.000131999
ExecutionTime = 14.26 s  ClockTime = 15 s

Time = 14

smoothSolver:  Solving for Ux, Initial residual = 0.00260029, Final residual = 0.000120702, No Iterations 1
smoothSolver:  Solving for Uy, Initial residual = 0.0101318, Final residual = 0.000510378, No Iterations 1
GAMG:  Solving for p, Initial residual = 4.2759e-06, Final residual = 7.00061e-08, No Iterations 1
GAMG:  Solving for p, Initial residual = 1.5521e-07, Final residual = 8.93863e-09, No Iterations 2
GAMG:  Solving for p, Initial residual = 3.07101e-08, Final residual = 2.94583e-09, No Iterations 3
time step continuity errors : sum local = 2.17689e-06, global = 1.25807e-08, cumulative = 0.000132011
ExecutionTime = 15.23 s  ClockTime = 16 s

Time = 15

smoothSolver:  Solving for Ux, Initial residual = 0.00252973, Final residual = 0.000116255, No Iterations 1
smoothSolver:  Solving for Uy, Initial residual = 0.00970931, Final residual = 0.000484735, No Iterations 1
GAMG:  Solving for p, Initial residual = 3.76781e-06, Final residual = 6.40359e-08, No Iterations 1
GAMG:  Solving for p, Initial residual = 1.39967e-07, Final residual = 7.48771e-09, No Iterations 2
GAMG:  Solving for p, Initial residual = 2.73682e-08, Final residual = 2.73409e-09, No Iterations 2
time step continuity errors : sum local = 2.07333e-06, global = 1.70834e-08, cumulative = 0.000132028
ExecutionTime = 16.12 s  ClockTime = 17 s

Time = 16

smoothSolver:  Solving for Ux, Initial residual = 0.00246821, Final residual = 0.000112146, No Iterations 1
smoothSolver:  Solving for Uy, Initial residual = 0.00937818, Final residual = 0.000470693, No Iterations 1
GAMG:  Solving for p, Initial residual = 3.3233e-06, Final residual = 5.85057e-08, No Iterations 1
GAMG:  Solving for p, Initial residual = 1.21988e-07, Final residual = 7.76335e-09, No Iterations 2
GAMG:  Solving for p, Initial residual = 2.87195e-08, Final residual = 1.99904e-09, No Iterations 3
time step continuity errors : sum local = 1.55097e-06, global = 7.30043e-08, cumulative = 0.000132101
ExecutionTime = 17.09 s  ClockTime = 17 s

Time = 17

smoothSolver:  Solving for Ux, Initial residual = 0.00240698, Final residual = 0.000107574, No Iterations 1
smoothSolver:  Solving for Uy, Initial residual = 0.00905238, Final residual = 0.000458599, No Iterations 1
GAMG:  Solving for p, Initial residual = 2.99206e-06, Final residual = 5.00822e-08, No Iterations 1
GAMG:  Solving for p, Initial residual = 1.0664e-07, Final residual = 6.00331e-09, No Iterations 2
GAMG:  Solving for p, Initial residual = 2.08331e-08, Final residual = 1.46262e-09, No Iterations 3
time step continuity errors : sum local = 1.15905e-06, global = 1.63472e-07, cumulative = 0.000132265
ExecutionTime = 18.06 s  ClockTime = 18 s

Time = 18

smoothSolver:  Solving for Ux, Initial residual = 0.00235671, Final residual = 0.000104203, No Iterations 1
smoothSolver:  Solving for Uy, Initial residual = 0.00878655, Final residual = 0.000445069, No Iterations 1
GAMG:  Solving for p, Initial residual = 2.75415e-06, Final residual = 4.80154e-08, No Iterations 1
GAMG:  Solving for p, Initial residual = 9.84971e-08, Final residual = 6.25595e-09, No Iterations 2
GAMG:  Solving for p, Initial residual = 2.01305e-08, Final residual = 1.87057e-09, No Iterations 3
time step continuity errors : sum local = 1.5158e-06, global = 1.82961e-07, cumulative = 0.000132448
ExecutionTime = 19.07 s  ClockTime = 19 s

Time = 19

smoothSolver:  Solving for Ux, Initial residual = 0.00231058, Final residual = 0.000102165, No Iterations 1
smoothSolver:  Solving for Uy, Initial residual = 0.00852214, Final residual = 0.000427846, No Iterations 1
GAMG:  Solving for p, Initial residual = 2.51499e-06, Final residual = 4.62126e-08, No Iterations 1
GAMG:  Solving for p, Initial residual = 8.90184e-08, Final residual = 6.25211e-09, No Iterations 2
GAMG:  Solving for p, Initial residual = 2.01115e-08, Final residual = 1.93197e-09, No Iterations 3
time step continuity errors : sum local = 1.60024e-06, global = 9.72954e-08, cumulative = 0.000132545
ExecutionTime = 20.05 s  ClockTime = 20 s

Time = 20

smoothSolver:  Solving for Ux, Initial residual = 0.00226219, Final residual = 9.98314e-05, No Iterations 1
smoothSolver:  Solving for Uy, Initial residual = 0.00827694, Final residual = 0.000408705, No Iterations 1
GAMG:  Solving for p, Initial residual = 2.29841e-06, Final residual = 4.13067e-08, No Iterations 1
GAMG:  Solving for p, Initial residual = 8.17558e-08, Final residual = 5.41519e-09, No Iterations 2
GAMG:  Solving for p, Initial residual = 1.86365e-08, Final residual = 1.19329e-09, No Iterations 3
time step continuity errors : sum local = 1.00897e-06, global = 1.11237e-07, cumulative = 0.000132656
ExecutionTime = 21.04 s  ClockTime = 21 s

Time = 21

smoothSolver:  Solving for Ux, Initial residual = 0.00221762, Final residual = 9.69442e-05, No Iterations 1
smoothSolver:  Solving for Uy, Initial residual = 0.0080824, Final residual = 0.000386783, No Iterations 1
GAMG:  Solving for p, Initial residual = 2.12669e-06, Final residual = 3.72216e-08, No Iterations 1
GAMG:  Solving for p, Initial residual = 7.4737e-08, Final residual = 5.04068e-09, No Iterations 2
GAMG:  Solving for p, Initial residual = 1.69907e-08, Final residual = 1.43902e-09, No Iterations 3
time step continuity errors : sum local = 1.24238e-06, global = 5.21164e-08, cumulative = 0.000132708
ExecutionTime = 22.04 s  ClockTime = 22 s

Time = 22

smoothSolver:  Solving for Ux, Initial residual = 0.00217876, Final residual = 9.43347e-05, No Iterations 1
smoothSolver:  Solving for Uy, Initial residual = 0.00788489, Final residual = 0.000365424, No Iterations 1
GAMG:  Solving for p, Initial residual = 1.97501e-06, Final residual = 3.79477e-08, No Iterations 1
GAMG:  Solving for p, Initial residual = 7.38602e-08, Final residual = 4.98307e-09, No Iterations 2
GAMG:  Solving for p, Initial residual = 1.84157e-08, Final residual = 1.11364e-09, No Iterations 3
time step continuity errors : sum local = 9.80728e-07, global = -5.48588e-09, cumulative = 0.000132703
ExecutionTime = 22.98 s  ClockTime = 23 s

Time = 23

smoothSolver:  Solving for Ux, Initial residual = 0.00214141, Final residual = 9.17329e-05, No Iterations 1
smoothSolver:  Solving for Uy, Initial residual = 0.00770265, Final residual = 0.000350135, No Iterations 1
GAMG:  Solving for p, Initial residual = 1.82737e-06, Final residual = 3.42466e-08, No Iterations 1
GAMG:  Solving for p, Initial residual = 6.74378e-08, Final residual = 4.41601e-09, No Iterations 2
GAMG:  Solving for p, Initial residual = 1.62581e-08, Final residual = 1.52492e-09, No Iterations 2
time step continuity errors : sum local = 1.36688e-06, global = 1.52157e-07, cumulative = 0.000132855
ExecutionTime = 23.89 s  ClockTime = 24 s

Time = 24

smoothSolver:  Solving for Ux, Initial residual = 0.00210532, Final residual = 8.98894e-05, No Iterations 1
smoothSolver:  Solving for Uy, Initial residual = 0.00753792, Final residual = 0.000339554, No Iterations 1
GAMG:  Solving for p, Initial residual = 1.68257e-06, Final residual = 3.06862e-08, No Iterations 1
GAMG:  Solving for p, Initial residual = 5.98253e-08, Final residual = 4.74734e-09, No Iterations 2
GAMG:  Solving for p, Initial residual = 1.68032e-08, Final residual = 1.15258e-09, No Iterations 3
time step continuity errors : sum local = 1.05297e-06, global = 1.4751e-07, cumulative = 0.000133003
ExecutionTime = 24.89 s  ClockTime = 25 s

Time = 25

smoothSolver:  Solving for Ux, Initial residual = 0.00207639, Final residual = 8.77399e-05, No Iterations 1
smoothSolver:  Solving for Uy, Initial residual = 0.00737273, Final residual = 0.000333383, No Iterations 1
GAMG:  Solving for p, Initial residual = 1.56618e-06, Final residual = 2.9226e-08, No Iterations 1
GAMG:  Solving for p, Initial residual = 5.86802e-08, Final residual = 4.1131e-09, No Iterations 2
GAMG:  Solving for p, Initial residual = 1.50205e-08, Final residual = 9.89985e-10, No Iterations 3
time step continuity errors : sum local = 9.21203e-07, global = 1.08876e-07, cumulative = 0.000133111
ExecutionTime = 25.92 s  ClockTime = 26 s

Time = 26

smoothSolver:  Solving for Ux, Initial residual = 0.00204992, Final residual = 8.56174e-05, No Iterations 1
smoothSolver:  Solving for Uy, Initial residual = 0.0072331, Final residual = 0.000328602, No Iterations 1
GAMG:  Solving for p, Initial residual = 1.45918e-06, Final residual = 2.72689e-08, No Iterations 1
GAMG:  Solving for p, Initial residual = 5.32262e-08, Final residual = 3.87306e-09, No Iterations 2
GAMG:  Solving for p, Initial residual = 1.4178e-08, Final residual = 7.14803e-10, No Iterations 3
time step continuity errors : sum local = 6.76586e-07, global = -1.60479e-10, cumulative = 0.000133111
ExecutionTime = 26.99 s  ClockTime = 27 s

Time = 27

smoothSolver:  Solving for Ux, Initial residual = 0.00202505, Final residual = 8.39442e-05, No Iterations 1
smoothSolver:  Solving for Uy, Initial residual = 0.00710351, Final residual = 0.000323757, No Iterations 1
GAMG:  Solving for p, Initial residual = 1.37943e-06, Final residual = 2.65872e-08, No Iterations 1
GAMG:  Solving for p, Initial residual = 5.08e-08, Final residual = 3.43717e-09, No Iterations 2
GAMG:  Solving for p, Initial residual = 1.29876e-08, Final residual = 1.21841e-09, No Iterations 2
time step continuity errors : sum local = 1.17091e-06, global = -1.28866e-08, cumulative = 0.000133098
ExecutionTime = 27.9 s  ClockTime = 28 s

Time = 28

smoothSolver:  Solving for Ux, Initial residual = 0.00200027, Final residual = 8.24697e-05, No Iterations 1
smoothSolver:  Solving for Uy, Initial residual = 0.00697136, Final residual = 0.000316886, No Iterations 1
GAMG:  Solving for p, Initial residual = 1.28921e-06, Final residual = 2.53064e-08, No Iterations 1
GAMG:  Solving for p, Initial residual = 4.78839e-08, Final residual = 3.63367e-09, No Iterations 2
GAMG:  Solving for p, Initial residual = 1.37433e-08, Final residual = 7.42572e-10, No Iterations 3
time step continuity errors : sum local = 7.25344e-07, global = 1.60513e-08, cumulative = 0.000133115
ExecutionTime = 28.86 s  ClockTime = 29 s

Time = 29

smoothSolver:  Solving for Ux, Initial residual = 0.00197345, Final residual = 8.10875e-05, No Iterations 1
smoothSolver:  Solving for Uy, Initial residual = 0.00683692, Final residual = 0.000309705, No Iterations 1
GAMG:  Solving for p, Initial residual = 1.22366e-06, Final residual = 2.45049e-08, No Iterations 1
GAMG:  Solving for p, Initial residual = 4.62331e-08, Final residual = 3.32027e-09, No Iterations 2
GAMG:  Solving for p, Initial residual = 1.26418e-08, Final residual = 6.41274e-10, No Iterations 3
time step continuity errors : sum local = 6.36166e-07, global = -3.05725e-09, cumulative = 0.000133111
ExecutionTime = 29.85 s  ClockTime = 30 s

Time = 30

smoothSolver:  Solving for Ux, Initial residual = 0.00194796, Final residual = 8.01211e-05, No Iterations 1
smoothSolver:  Solving for Uy, Initial residual = 0.00673009, Final residual = 0.000302911, No Iterations 1
GAMG:  Solving for p, Initial residual = 1.15868e-06, Final residual = 2.31518e-08, No Iterations 1
GAMG:  Solving for p, Initial residual = 4.36711e-08, Final residual = 3.10818e-09, No Iterations 2
GAMG:  Solving for p, Initial residual = 1.15777e-08, Final residual = 6.0794e-10, No Iterations 3
time step continuity errors : sum local = 6.1165e-07, global = -2.89936e-09, cumulative = 0.000133109
ExecutionTime = 30.81 s  ClockTime = 31 s

Time = 31

smoothSolver:  Solving for Ux, Initial residual = 0.00192386, Final residual = 7.89527e-05, No Iterations 1
smoothSolver:  Solving for Uy, Initial residual = 0.00662197, Final residual = 0.000296226, No Iterations 1
GAMG:  Solving for p, Initial residual = 1.10861e-06, Final residual = 2.24544e-08, No Iterations 1
GAMG:  Solving for p, Initial residual = 4.22499e-08, Final residual = 3.09488e-09, No Iterations 2
GAMG:  Solving for p, Initial residual = 1.10427e-08, Final residual = 6.27456e-10, No Iterations 3
time step continuity errors : sum local = 6.40327e-07, global = -1.8031e-09, cumulative = 0.000133107
ExecutionTime = 31.81 s  ClockTime = 32 s

Time = 32

smoothSolver:  Solving for Ux, Initial residual = 0.00190254, Final residual = 7.7669e-05, No Iterations 1
smoothSolver:  Solving for Uy, Initial residual = 0.00651657, Final residual = 0.000290179, No Iterations 1
GAMG:  Solving for p, Initial residual = 1.06979e-06, Final residual = 2.23646e-08, No Iterations 1
GAMG:  Solving for p, Initial residual = 4.11885e-08, Final residual = 3.14071e-09, No Iterations 2
GAMG:  Solving for p, Initial residual = 1.19522e-08, Final residual = 6.50762e-10, No Iterations 3
time step continuity errors : sum local = 6.73488e-07, global = -1.11132e-09, cumulative = 0.000133106
ExecutionTime = 32.85 s  ClockTime = 33 s

Time = 33

smoothSolver:  Solving for Ux, Initial residual = 0.00188433, Final residual = 7.63407e-05, No Iterations 1
smoothSolver:  Solving for Uy, Initial residual = 0.00641369, Final residual = 0.000283821, No Iterations 1
GAMG:  Solving for p, Initial residual = 9.95288e-07, Final residual = 2.10885e-08, No Iterations 1
GAMG:  Solving for p, Initial residual = 3.78646e-08, Final residual = 3.01233e-09, No Iterations 2
GAMG:  Solving for p, Initial residual = 1.07674e-08, Final residual = 6.36537e-10, No Iterations 3
time step continuity errors : sum local = 6.67921e-07, global = 9.88185e-09, cumulative = 0.000133116
ExecutionTime = 33.84 s  ClockTime = 34 s

Time = 34

smoothSolver:  Solving for Ux, Initial residual = 0.00186587, Final residual = 7.53255e-05, No Iterations 1
smoothSolver:  Solving for Uy, Initial residual = 0.00632223, Final residual = 0.000277492, No Iterations 1
GAMG:  Solving for p, Initial residual = 9.49139e-07, Final residual = 1.92288e-08, No Iterations 1
GAMG:  Solving for p, Initial residual = 3.58174e-08, Final residual = 2.96258e-09, No Iterations 2
GAMG:  Solving for p, Initial residual = 1.067e-08, Final residual = 1.05486e-09, No Iterations 2
time step continuity errors : sum local = 1.12178e-06, global = -1.37872e-08, cumulative = 0.000133102
ExecutionTime = 34.75 s  ClockTime = 35 s

Time = 35

smoothSolver:  Solving for Ux, Initial residual = 0.00184912, Final residual = 7.48774e-05, No Iterations 1
smoothSolver:  Solving for Uy, Initial residual = 0.00621937, Final residual = 0.000272662, No Iterations 1
GAMG:  Solving for p, Initial residual = 9.03937e-07, Final residual = 1.95222e-08, No Iterations 1
GAMG:  Solving for p, Initial residual = 3.56986e-08, Final residual = 2.99427e-09, No Iterations 2
GAMG:  Solving for p, Initial residual = 1.0939e-08, Final residual = 1.01553e-09, No Iterations 2
time step continuity errors : sum local = 1.09327e-06, global = -1.33579e-08, cumulative = 0.000133088
ExecutionTime = 35.66 s  ClockTime = 36 s

Time = 36

smoothSolver:  Solving for Ux, Initial residual = 0.00183257, Final residual = 7.45223e-05, No Iterations 1
smoothSolver:  Solving for Uy, Initial residual = 0.00612922, Final residual = 0.000269909, No Iterations 1
GAMG:  Solving for p, Initial residual = 8.64772e-07, Final residual = 1.83864e-08, No Iterations 1
GAMG:  Solving for p, Initial residual = 3.3053e-08, Final residual = 2.8411e-09, No Iterations 2
GAMG:  Solving for p, Initial residual = 1.05453e-08, Final residual = 8.37048e-10, No Iterations 2
time step continuity errors : sum local = 9.11645e-07, global = -1.42338e-08, cumulative = 0.000133074
ExecutionTime = 36.56 s  ClockTime = 37 s

Time = 37

smoothSolver:  Solving for Ux, Initial residual = 0.00181522, Final residual = 7.39315e-05, No Iterations 1
smoothSolver:  Solving for Uy, Initial residual = 0.00605072, Final residual = 0.000267794, No Iterations 1
GAMG:  Solving for p, Initial residual = 8.17127e-07, Final residual = 1.69856e-08, No Iterations 1
GAMG:  Solving for p, Initial residual = 3.11084e-08, Final residual = 2.74104e-09, No Iterations 2
GAMG:  Solving for p, Initial residual = 1.05748e-08, Final residual = 7.84169e-10, No Iterations 2
time step continuity errors : sum local = 8.63433e-07, global = -2.09663e-08, cumulative = 0.000133053
ExecutionTime = 37.48 s  ClockTime = 38 s

Time = 38

smoothSolver:  Solving for Ux, Initial residual = 0.00179814, Final residual = 7.3166e-05, No Iterations 1
smoothSolver:  Solving for Uy, Initial residual = 0.00597148, Final residual = 0.00026357, No Iterations 1
GAMG:  Solving for p, Initial residual = 7.87014e-07, Final residual = 1.56773e-08, No Iterations 1
GAMG:  Solving for p, Initial residual = 2.89304e-08, Final residual = 1.46637e-09, No Iterations 3
GAMG:  Solving for p, Initial residual = 1.23562e-08, Final residual = 7.77212e-10, No Iterations 1
time step continuity errors : sum local = 8.62888e-07, global = -2.23429e-08, cumulative = 0.000133031
ExecutionTime = 38.44 s  ClockTime = 39 s

Time = 39

smoothSolver:  Solving for Ux, Initial residual = 0.00178205, Final residual = 7.24848e-05, No Iterations 1
smoothSolver:  Solving for Uy, Initial residual = 0.00589652, Final residual = 0.000259066, No Iterations 1
GAMG:  Solving for p, Initial residual = 7.68516e-07, Final residual = 1.52563e-08, No Iterations 1
GAMG:  Solving for p, Initial residual = 2.89045e-08, Final residual = 1.40355e-09, No Iterations 3
GAMG:  Solving for p, Initial residual = 1.20973e-08, Final residual = 7.65347e-10, No Iterations 1
time step continuity errors : sum local = 8.57566e-07, global = -2.35974e-08, cumulative = 0.000133007
ExecutionTime = 39.37 s  ClockTime = 40 s

Time = 40

smoothSolver:  Solving for Ux, Initial residual = 0.00176477, Final residual = 7.14751e-05, No Iterations 1
smoothSolver:  Solving for Uy, Initial residual = 0.0058245, Final residual = 0.00025477, No Iterations 1
GAMG:  Solving for p, Initial residual = 7.39481e-07, Final residual = 1.58027e-08, No Iterations 1
GAMG:  Solving for p, Initial residual = 2.93304e-08, Final residual = 2.75165e-09, No Iterations 2
GAMG:  Solving for p, Initial residual = 1.05472e-08, Final residual = 6.91528e-10, No Iterations 2
time step continuity errors : sum local = 7.83196e-07, global = -2.69835e-08, cumulative = 0.00013298
ExecutionTime = 40.3 s  ClockTime = 41 s

Time = 41

smoothSolver:  Solving for Ux, Initial residual = 0.00175007, Final residual = 7.06062e-05, No Iterations 1
smoothSolver:  Solving for Uy, Initial residual = 0.00575829, Final residual = 0.000250626, No Iterations 1
GAMG:  Solving for p, Initial residual = 7.24165e-07, Final residual = 1.47692e-08, No Iterations 1
GAMG:  Solving for p, Initial residual = 2.78081e-08, Final residual = 2.30951e-09, No Iterations 2
GAMG:  Solving for p, Initial residual = 8.63602e-09, Final residual = 7.58367e-10, No Iterations 2
time step continuity errors : sum local = 8.67381e-07, global = -1.77188e-08, cumulative = 0.000132963
ExecutionTime = 41.28 s  ClockTime = 42 s

Time = 42

smoothSolver:  Solving for Ux, Initial residual = 0.00173687, Final residual = 6.98657e-05, No Iterations 1
smoothSolver:  Solving for Uy, Initial residual = 0.00569048, Final residual = 0.000246468, No Iterations 1
GAMG:  Solving for p, Initial residual = 6.93804e-07, Final residual = 1.43334e-08, No Iterations 1
GAMG:  Solving for p, Initial residual = 2.67968e-08, Final residual = 2.57113e-09, No Iterations 2
GAMG:  Solving for p, Initial residual = 9.56731e-09, Final residual = 6.96803e-10, No Iterations 2
time step continuity errors : sum local = 8.04743e-07, global = -2.02147e-08, cumulative = 0.000132942
ExecutionTime = 42.34 s  ClockTime = 43 s

Time = 43

smoothSolver:  Solving for Ux, Initial residual = 0.00172365, Final residual = 6.91354e-05, No Iterations 1
smoothSolver:  Solving for Uy, Initial residual = 0.00562784, Final residual = 0.000242468, No Iterations 1
GAMG:  Solving for p, Initial residual = 6.72555e-07, Final residual = 1.43987e-08, No Iterations 1
GAMG:  Solving for p, Initial residual = 2.66973e-08, Final residual = 1.36452e-09, No Iterations 3
GAMG:  Solving for p, Initial residual = 1.11595e-08, Final residual = 7.43732e-10, No Iterations 1
time step continuity errors : sum local = 8.64984e-07, global = -2.37035e-08, cumulative = 0.000132919
ExecutionTime = 43.28 s  ClockTime = 44 s

Time = 44

smoothSolver:  Solving for Ux, Initial residual = 0.00171266, Final residual = 6.85013e-05, No Iterations 1
smoothSolver:  Solving for Uy, Initial residual = 0.00557059, Final residual = 0.000239093, No Iterations 1
GAMG:  Solving for p, Initial residual = 6.44866e-07, Final residual = 1.42689e-08, No Iterations 1
GAMG:  Solving for p, Initial residual = 2.59371e-08, Final residual = 1.38568e-09, No Iterations 3
GAMG:  Solving for p, Initial residual = 1.11469e-08, Final residual = 7.54727e-10, No Iterations 1
time step continuity errors : sum local = 8.84842e-07, global = -3.12413e-08, cumulative = 0.000132887
ExecutionTime = 44.59 s  ClockTime = 45 s

Time = 45

smoothSolver:  Solving for Ux, Initial residual = 0.0017026, Final residual = 6.79009e-05, No Iterations 1
smoothSolver:  Solving for Uy, Initial residual = 0.00551481, Final residual = 0.000235614, No Iterations 1
GAMG:  Solving for p, Initial residual = 6.20548e-07, Final residual = 1.37245e-08, No Iterations 1
GAMG:  Solving for p, Initial residual = 2.48532e-08, Final residual = 1.27752e-09, No Iterations 3
GAMG:  Solving for p, Initial residual = 1.05093e-08, Final residual = 6.96449e-10, No Iterations 1
time step continuity errors : sum local = 8.23085e-07, global = -3.14746e-08, cumulative = 0.000132856
ExecutionTime = 45.72 s  ClockTime = 46 s

Time = 46

smoothSolver:  Solving for Ux, Initial residual = 0.00169093, Final residual = 6.74407e-05, No Iterations 1
smoothSolver:  Solving for Uy, Initial residual = 0.0054567, Final residual = 0.000232422, No Iterations 1
GAMG:  Solving for p, Initial residual = 5.99167e-07, Final residual = 1.33471e-08, No Iterations 1
GAMG:  Solving for p, Initial residual = 2.38965e-08, Final residual = 1.19913e-09, No Iterations 3
GAMG:  Solving for p, Initial residual = 1.06677e-08, Final residual = 6.52249e-10, No Iterations 1
time step continuity errors : sum local = 7.76908e-07, global = -3.2171e-08, cumulative = 0.000132824
ExecutionTime = 46.64 s  ClockTime = 47 s

Time = 47

smoothSolver:  Solving for Ux, Initial residual = 0.00168001, Final residual = 6.69712e-05, No Iterations 1
smoothSolver:  Solving for Uy, Initial residual = 0.00539489, Final residual = 0.000229877, No Iterations 1
GAMG:  Solving for p, Initial residual = 5.83275e-07, Final residual = 1.30685e-08, No Iterations 1
GAMG:  Solving for p, Initial residual = 2.37987e-08, Final residual = 1.22719e-09, No Iterations 3
GAMG:  Solving for p, Initial residual = 1.02476e-08, Final residual = 6.59452e-10, No Iterations 1
time step continuity errors : sum local = 7.917e-07, global = -2.9404e-08, cumulative = 0.000132794
ExecutionTime = 47.59 s  ClockTime = 48 s

Time = 48

smoothSolver:  Solving for Ux, Initial residual = 0.00166966, Final residual = 6.6377e-05, No Iterations 1
smoothSolver:  Solving for Uy, Initial residual = 0.00533237, Final residual = 0.00022773, No Iterations 1
GAMG:  Solving for p, Initial residual = 5.65852e-07, Final residual = 1.29595e-08, No Iterations 1
GAMG:  Solving for p, Initial residual = 2.35263e-08, Final residual = 1.24432e-09, No Iterations 3
GAMG:  Solving for p, Initial residual = 1.05083e-08, Final residual = 6.90121e-10, No Iterations 1
time step continuity errors : sum local = 8.34621e-07, global = -3.54303e-08, cumulative = 0.000132759
ExecutionTime = 48.52 s  ClockTime = 49 s

Time = 49

smoothSolver:  Solving for Ux, Initial residual = 0.00165939, Final residual = 6.584e-05, No Iterations 1
smoothSolver:  Solving for Uy, Initial residual = 0.00527968, Final residual = 0.000226018, No Iterations 1
GAMG:  Solving for p, Initial residual = 5.5251e-07, Final residual = 1.27246e-08, No Iterations 1
GAMG:  Solving for p, Initial residual = 2.26419e-08, Final residual = 1.32891e-09, No Iterations 3
GAMG:  Solving for p, Initial residual = 1.09413e-08, Final residual = 7.52863e-10, No Iterations 1
time step continuity errors : sum local = 9.1651e-07, global = -4.04378e-08, cumulative = 0.000132718
ExecutionTime = 49.51 s  ClockTime = 50 s

Time = 50

smoothSolver:  Solving for Ux, Initial residual = 0.00165023, Final residual = 6.55013e-05, No Iterations 1
smoothSolver:  Solving for Uy, Initial residual = 0.00523243, Final residual = 0.000223571, No Iterations 1
GAMG:  Solving for p, Initial residual = 5.38971e-07, Final residual = 1.24976e-08, No Iterations 1
GAMG:  Solving for p, Initial residual = 2.24145e-08, Final residual = 1.39353e-09, No Iterations 3
GAMG:  Solving for p, Initial residual = 1.03469e-08, Final residual = 7.46081e-10, No Iterations 1
time step continuity errors : sum local = 9.15038e-07, global = -3.89199e-08, cumulative = 0.00013268
ExecutionTime = 50.36 s  ClockTime = 51 s

Time = 51

smoothSolver:  Solving for Ux, Initial residual = 0.00164217, Final residual = 6.50193e-05, No Iterations 1
smoothSolver:  Solving for Uy, Initial residual = 0.00518506, Final residual = 0.000220204, No Iterations 1
GAMG:  Solving for p, Initial residual = 5.27279e-07, Final residual = 1.19393e-08, No Iterations 1
GAMG:  Solving for p, Initial residual = 2.1203e-08, Final residual = 2.00762e-09, No Iterations 2
GAMG:  Solving for p, Initial residual = 7.47435e-09, Final residual = 6.76128e-10, No Iterations 2
time step continuity errors : sum local = 8.3755e-07, global = -3.07981e-08, cumulative = 0.000132649
ExecutionTime = 51.21 s  ClockTime = 52 s

Time = 52

smoothSolver:  Solving for Ux, Initial residual = 0.00163228, Final residual = 6.45054e-05, No Iterations 1
smoothSolver:  Solving for Uy, Initial residual = 0.0051423, Final residual = 0.000218075, No Iterations 1
GAMG:  Solving for p, Initial residual = 5.17769e-07, Final residual = 1.21891e-08, No Iterations 1
GAMG:  Solving for p, Initial residual = 2.15029e-08, Final residual = 2.0274e-09, No Iterations 2
GAMG:  Solving for p, Initial residual = 7.57099e-09, Final residual = 7.01183e-10, No Iterations 2
time step continuity errors : sum local = 8.76219e-07, global = -3.25452e-08, cumulative = 0.000132616
ExecutionTime = 52.05 s  ClockTime = 52 s

Time = 53

smoothSolver:  Solving for Ux, Initial residual = 0.00162311, Final residual = 6.42854e-05, No Iterations 1
smoothSolver:  Solving for Uy, Initial residual = 0.00509531, Final residual = 0.000215998, No Iterations 1
GAMG:  Solving for p, Initial residual = 5.06713e-07, Final residual = 1.25872e-08, No Iterations 1
GAMG:  Solving for p, Initial residual = 2.23095e-08, Final residual = 2.06628e-09, No Iterations 2
GAMG:  Solving for p, Initial residual = 7.39891e-09, Final residual = 3.40281e-10, No Iterations 3
time step continuity errors : sum local = 4.28845e-07, global = -1.44639e-08, cumulative = 0.000132602
ExecutionTime = 53.3 s  ClockTime = 54 s

Time = 54

smoothSolver:  Solving for Ux, Initial residual = 0.00161434, Final residual = 6.41646e-05, No Iterations 1
smoothSolver:  Solving for Uy, Initial residual = 0.00504376, Final residual = 0.000214205, No Iterations 1
GAMG:  Solving for p, Initial residual = 4.78907e-07, Final residual = 1.23353e-08, No Iterations 1
GAMG:  Solving for p, Initial residual = 2.12907e-08, Final residual = 1.90424e-09, No Iterations 2
GAMG:  Solving for p, Initial residual = 7.21739e-09, Final residual = 3.29676e-10, No Iterations 3
time step continuity errors : sum local = 4.1887e-07, global = -8.82971e-09, cumulative = 0.000132593
ExecutionTime = 54.96 s  ClockTime = 55 s

Time = 55

smoothSolver:  Solving for Ux, Initial residual = 0.00160576, Final residual = 6.39335e-05, No Iterations 1
smoothSolver:  Solving for Uy, Initial residual = 0.00498826, Final residual = 0.000212318, No Iterations 1
GAMG:  Solving for p, Initial residual = 4.63279e-07, Final residual = 1.17338e-08, No Iterations 1
GAMG:  Solving for p, Initial residual = 2.06764e-08, Final residual = 1.93949e-09, No Iterations 2
GAMG:  Solving for p, Initial residual = 7.5313e-09, Final residual = 6.82106e-10, No Iterations 2
time step continuity errors : sum local = 8.74158e-07, global = -3.04685e-08, cumulative = 0.000132562
ExecutionTime = 55.88 s  ClockTime = 56 s

Time = 56

smoothSolver:  Solving for Ux, Initial residual = 0.00159678, Final residual = 6.36415e-05, No Iterations 1
smoothSolver:  Solving for Uy, Initial residual = 0.0049371, Final residual = 0.000210446, No Iterations 1
GAMG:  Solving for p, Initial residual = 4.52045e-07, Final residual = 1.12816e-08, No Iterations 1
GAMG:  Solving for p, Initial residual = 1.98033e-08, Final residual = 1.52047e-09, No Iterations 3
GAMG:  Solving for p, Initial residual = 9.27265e-09, Final residual = 7.48027e-10, No Iterations 1
time step continuity errors : sum local = 9.64803e-07, global = -2.7138e-08, cumulative = 0.000132535
ExecutionTime = 56.71 s  ClockTime = 57 s

Time = 57

smoothSolver:  Solving for Ux, Initial residual = 0.00158822, Final residual = 6.31956e-05, No Iterations 1
smoothSolver:  Solving for Uy, Initial residual = 0.00488399, Final residual = 0.000208946, No Iterations 1
GAMG:  Solving for p, Initial residual = 4.46416e-07, Final residual = 1.13433e-08, No Iterations 1
GAMG:  Solving for p, Initial residual = 1.93827e-08, Final residual = 1.47243e-09, No Iterations 3
GAMG:  Solving for p, Initial residual = 9.45636e-09, Final residual = 7.22501e-10, No Iterations 1
time step continuity errors : sum local = 9.38348e-07, global = -2.78731e-08, cumulative = 0.000132507
ExecutionTime = 57.52 s  ClockTime = 58 s

Time = 58

smoothSolver:  Solving for Ux, Initial residual = 0.00158132, Final residual = 6.28397e-05, No Iterations 1
smoothSolver:  Solving for Uy, Initial residual = 0.00483528, Final residual = 0.000206961, No Iterations 1
GAMG:  Solving for p, Initial residual = 4.46455e-07, Final residual = 1.08344e-08, No Iterations 1
GAMG:  Solving for p, Initial residual = 1.90239e-08, Final residual = 1.8429e-09, No Iterations 2
GAMG:  Solving for p, Initial residual = 6.97222e-09, Final residual = 6.73207e-10, No Iterations 2
time step continuity errors : sum local = 8.8209e-07, global = -3.03169e-08, cumulative = 0.000132477
ExecutionTime = 58.45 s  ClockTime = 59 s

Time = 59

smoothSolver:  Solving for Ux, Initial residual = 0.00157331, Final residual = 6.25409e-05, No Iterations 1
smoothSolver:  Solving for Uy, Initial residual = 0.00478576, Final residual = 0.000204564, No Iterations 1
GAMG:  Solving for p, Initial residual = 4.35513e-07, Final residual = 1.11636e-08, No Iterations 1
GAMG:  Solving for p, Initial residual = 1.94943e-08, Final residual = 1.81748e-09, No Iterations 2
GAMG:  Solving for p, Initial residual = 6.78015e-09, Final residual = 3.01422e-10, No Iterations 3
time step continuity errors : sum local = 3.98004e-07, global = -1.04365e-08, cumulative = 0.000132467
ExecutionTime = 60.45 s  ClockTime = 61 s

Time = 60

smoothSolver:  Solving for Ux, Initial residual = 0.00156583, Final residual = 6.22767e-05, No Iterations 1
smoothSolver:  Solving for Uy, Initial residual = 0.00473872, Final residual = 0.000202084, No Iterations 1
GAMG:  Solving for p, Initial residual = 4.26972e-07, Final residual = 1.12543e-08, No Iterations 1
GAMG:  Solving for p, Initial residual = 1.93332e-08, Final residual = 1.73709e-09, No Iterations 2
GAMG:  Solving for p, Initial residual = 6.32904e-09, Final residual = 3.11696e-10, No Iterations 3
time step continuity errors : sum local = 4.14772e-07, global = -3.42065e-09, cumulative = 0.000132463
ExecutionTime = 61.86 s  ClockTime = 62 s

Time = 61

smoothSolver:  Solving for Ux, Initial residual = 0.00155834, Final residual = 6.20384e-05, No Iterations 1
smoothSolver:  Solving for Uy, Initial residual = 0.0046884, Final residual = 0.00019905, No Iterations 1
GAMG:  Solving for p, Initial residual = 4.09924e-07, Final residual = 1.08663e-08, No Iterations 1
GAMG:  Solving for p, Initial residual = 1.9329e-08, Final residual = 1.81434e-09, No Iterations 2
GAMG:  Solving for p, Initial residual = 6.96245e-09, Final residual = 6.04392e-10, No Iterations 2
time step continuity errors : sum local = 8.10645e-07, global = -2.07898e-08, cumulative = 0.000132442
ExecutionTime = 62.82 s  ClockTime = 63 s

Time = 62

smoothSolver:  Solving for Ux, Initial residual = 0.00155107, Final residual = 6.17677e-05, No Iterations 1
smoothSolver:  Solving for Uy, Initial residual = 0.00464454, Final residual = 0.000196006, No Iterations 1
GAMG:  Solving for p, Initial residual = 3.95186e-07, Final residual = 1.00967e-08, No Iterations 1
GAMG:  Solving for p, Initial residual = 1.78668e-08, Final residual = 1.74406e-09, No Iterations 2
GAMG:  Solving for p, Initial residual = 6.58388e-09, Final residual = 5.85097e-10, No Iterations 2
time step continuity errors : sum local = 7.90498e-07, global = -1.73211e-08, cumulative = 0.000132425
ExecutionTime = 63.77 s  ClockTime = 64 s

Time = 63

smoothSolver:  Solving for Ux, Initial residual = 0.00154428, Final residual = 6.14593e-05, No Iterations 1
smoothSolver:  Solving for Uy, Initial residual = 0.00459943, Final residual = 0.000192302, No Iterations 1
GAMG:  Solving for p, Initial residual = 3.81446e-07, Final residual = 9.7552e-09, No Iterations 1
GAMG:  Solving for p, Initial residual = 1.73317e-08, Final residual = 1.71192e-09, No Iterations 2
GAMG:  Solving for p, Initial residual = 6.56328e-09, Final residual = 5.268e-10, No Iterations 2
time step continuity errors : sum local = 7.16772e-07, global = -2.13785e-08, cumulative = 0.000132404
ExecutionTime = 64.68 s  ClockTime = 65 s

Time = 64

smoothSolver:  Solving for Ux, Initial residual = 0.00153636, Final residual = 6.09972e-05, No Iterations 1
smoothSolver:  Solving for Uy, Initial residual = 0.00454885, Final residual = 0.000189046, No Iterations 1
GAMG:  Solving for p, Initial residual = 3.75545e-07, Final residual = 9.84965e-09, No Iterations 1
GAMG:  Solving for p, Initial residual = 1.74108e-08, Final residual = 1.09125e-09, No Iterations 3
GAMG:  Solving for p, Initial residual = 8.13411e-09, Final residual = 5.50242e-10, No Iterations 1
time step continuity errors : sum local = 7.52294e-07, global = -2.61891e-08, cumulative = 0.000132378
ExecutionTime = 65.65 s  ClockTime = 66 s

Time = 65

smoothSolver:  Solving for Ux, Initial residual = 0.00152949, Final residual = 6.03593e-05, No Iterations 1
smoothSolver:  Solving for Uy, Initial residual = 0.00450587, Final residual = 0.000186875, No Iterations 1
GAMG:  Solving for p, Initial residual = 3.67331e-07, Final residual = 9.94542e-09, No Iterations 1
GAMG:  Solving for p, Initial residual = 1.77679e-08, Final residual = 1.04263e-09, No Iterations 3
GAMG:  Solving for p, Initial residual = 8.25698e-09, Final residual = 5.51401e-10, No Iterations 1
time step continuity errors : sum local = 7.57674e-07, global = -2.89547e-08, cumulative = 0.000132349
ExecutionTime = 66.59 s  ClockTime = 67 s

Time = 66

smoothSolver:  Solving for Ux, Initial residual = 0.00152424, Final residual = 5.97065e-05, No Iterations 1
smoothSolver:  Solving for Uy, Initial residual = 0.00446425, Final residual = 0.000185516, No Iterations 1
GAMG:  Solving for p, Initial residual = 3.65099e-07, Final residual = 9.93372e-09, No Iterations 1
GAMG:  Solving for p, Initial residual = 1.74642e-08, Final residual = 9.90909e-10, No Iterations 3
GAMG:  Solving for p, Initial residual = 8.2027e-09, Final residual = 5.45213e-10, No Iterations 1
time step continuity errors : sum local = 7.52827e-07, global = -2.95144e-08, cumulative = 0.000132319
ExecutionTime = 67.62 s  ClockTime = 68 s

Time = 67

smoothSolver:  Solving for Ux, Initial residual = 0.00151812, Final residual = 5.91349e-05, No Iterations 1
smoothSolver:  Solving for Uy, Initial residual = 0.00442028, Final residual = 0.000183825, No Iterations 1
GAMG:  Solving for p, Initial residual = 3.65271e-07, Final residual = 9.62299e-09, No Iterations 1
GAMG:  Solving for p, Initial residual = 1.73464e-08, Final residual = 1.03773e-09, No Iterations 3
GAMG:  Solving for p, Initial residual = 7.74846e-09, Final residual = 5.52309e-10, No Iterations 1
time step continuity errors : sum local = 7.66901e-07, global = -2.45039e-08, cumulative = 0.000132295
ExecutionTime = 69.26 s  ClockTime = 70 s

Time = 68

smoothSolver:  Solving for Ux, Initial residual = 0.00151148, Final residual = 5.87934e-05, No Iterations 1
smoothSolver:  Solving for Uy, Initial residual = 0.00437991, Final residual = 0.000181941, No Iterations 1
GAMG:  Solving for p, Initial residual = 3.81824e-07, Final residual = 9.61307e-09, No Iterations 1
GAMG:  Solving for p, Initial residual = 1.80701e-08, Final residual = 1.09585e-09, No Iterations 3
GAMG:  Solving for p, Initial residual = 7.89895e-09, Final residual = 5.81625e-10, No Iterations 1
time step continuity errors : sum local = 8.11517e-07, global = -3.16955e-08, cumulative = 0.000132263
ExecutionTime = 70.15 s  ClockTime = 71 s

Time = 69

smoothSolver:  Solving for Ux, Initial residual = 0.00150607, Final residual = 5.84951e-05, No Iterations 1
smoothSolver:  Solving for Uy, Initial residual = 0.00434032, Final residual = 0.000179646, No Iterations 1
GAMG:  Solving for p, Initial residual = 3.52216e-07, Final residual = 9.32397e-09, No Iterations 1
GAMG:  Solving for p, Initial residual = 1.6526e-08, Final residual = 1.05779e-09, No Iterations 3
GAMG:  Solving for p, Initial residual = 7.40958e-09, Final residual = 5.51478e-10, No Iterations 1
time step continuity errors : sum local = 7.73826e-07, global = -2.27448e-08, cumulative = 0.00013224
ExecutionTime = 71.02 s  ClockTime = 72 s

Time = 70

smoothSolver:  Solving for Ux, Initial residual = 0.0015018, Final residual = 5.82468e-05, No Iterations 1
smoothSolver:  Solving for Uy, Initial residual = 0.0043025, Final residual = 0.000177043, No Iterations 1
GAMG:  Solving for p, Initial residual = 3.42402e-07, Final residual = 9.22376e-09, No Iterations 1
GAMG:  Solving for p, Initial residual = 1.57543e-08, Final residual = 1.09401e-09, No Iterations 3
GAMG:  Solving for p, Initial residual = 7.14906e-09, Final residual = 5.42785e-10, No Iterations 1
time step continuity errors : sum local = 7.66471e-07, global = -1.39273e-08, cumulative = 0.000132226
ExecutionTime = 72.38 s  ClockTime = 73 s

Time = 71

smoothSolver:  Solving for Ux, Initial residual = 0.00149754, Final residual = 5.80401e-05, No Iterations 1
smoothSolver:  Solving for Uy, Initial residual = 0.00426377, Final residual = 0.000174564, No Iterations 1
GAMG:  Solving for p, Initial residual = 3.34663e-07, Final residual = 8.84718e-09, No Iterations 1
GAMG:  Solving for p, Initial residual = 1.57259e-08, Final residual = 9.2526e-10, No Iterations 3
GAMG:  Solving for p, Initial residual = 7.53368e-09, Final residual = 5.08568e-10, No Iterations 1
time step continuity errors : sum local = 7.21287e-07, global = -1.84884e-08, cumulative = 0.000132208
ExecutionTime = 74.13 s  ClockTime = 75 s

Time = 72

smoothSolver:  Solving for Ux, Initial residual = 0.00149213, Final residual = 5.78709e-05, No Iterations 1
smoothSolver:  Solving for Uy, Initial residual = 0.00422246, Final residual = 0.000172624, No Iterations 1
GAMG:  Solving for p, Initial residual = 3.37965e-07, Final residual = 8.75377e-09, No Iterations 1
GAMG:  Solving for p, Initial residual = 1.56751e-08, Final residual = 9.06566e-10, No Iterations 3
GAMG:  Solving for p, Initial residual = 7.66848e-09, Final residual = 5.00991e-10, No Iterations 1
time step continuity errors : sum local = 7.13158e-07, global = -2.60679e-08, cumulative = 0.000132182
ExecutionTime = 75.54 s  ClockTime = 76 s

Time = 73

smoothSolver:  Solving for Ux, Initial residual = 0.00148666, Final residual = 5.77384e-05, No Iterations 1
smoothSolver:  Solving for Uy, Initial residual = 0.00418989, Final residual = 0.000171199, No Iterations 1
GAMG:  Solving for p, Initial residual = 3.38979e-07, Final residual = 9.04348e-09, No Iterations 1
GAMG:  Solving for p, Initial residual = 1.6557e-08, Final residual = 9.57159e-10, No Iterations 3
GAMG:  Solving for p, Initial residual = 7.57614e-09, Final residual = 5.15176e-10, No Iterations 1
time step continuity errors : sum local = 7.36246e-07, global = -2.79455e-08, cumulative = 0.000132154
ExecutionTime = 77.2 s  ClockTime = 78 s

Time = 74

smoothSolver:  Solving for Ux, Initial residual = 0.00148119, Final residual = 5.7533e-05, No Iterations 1
smoothSolver:  Solving for Uy, Initial residual = 0.00415623, Final residual = 0.000170032, No Iterations 1
GAMG:  Solving for p, Initial residual = 3.31287e-07, Final residual = 9.04368e-09, No Iterations 1
GAMG:  Solving for p, Initial residual = 1.59896e-08, Final residual = 1.01689e-09, No Iterations 3
GAMG:  Solving for p, Initial residual = 7.20949e-09, Final residual = 5.29884e-10, No Iterations 1
time step continuity errors : sum local = 7.6122e-07, global = -2.52467e-08, cumulative = 0.000132128
ExecutionTime = 78.84 s  ClockTime = 79 s

Time = 75

smoothSolver:  Solving for Ux, Initial residual = 0.00147501, Final residual = 5.72362e-05, No Iterations 1
smoothSolver:  Solving for Uy, Initial residual = 0.00412093, Final residual = 0.000169032, No Iterations 1
GAMG:  Solving for p, Initial residual = 3.32322e-07, Final residual = 8.96185e-09, No Iterations 1
GAMG:  Solving for p, Initial residual = 1.63288e-08, Final residual = 1.03987e-09, No Iterations 3
GAMG:  Solving for p, Initial residual = 7.36305e-09, Final residual = 5.06788e-10, No Iterations 1
time step continuity errors : sum local = 7.31806e-07, global = -3.59543e-08, cumulative = 0.000132093
ExecutionTime = 80.44 s  ClockTime = 81 s

Time = 76

smoothSolver:  Solving for Ux, Initial residual = 0.00146815, Final residual = 5.68991e-05, No Iterations 1
smoothSolver:  Solving for Uy, Initial residual = 0.00408078, Final residual = 0.000167754, No Iterations 1
GAMG:  Solving for p, Initial residual = 3.19438e-07, Final residual = 8.67146e-09, No Iterations 1
GAMG:  Solving for p, Initial residual = 1.57093e-08, Final residual = 1.01313e-09, No Iterations 3
GAMG:  Solving for p, Initial residual = 7.37866e-09, Final residual = 4.91286e-10, No Iterations 1
time step continuity errors : sum local = 7.12983e-07, global = -3.41052e-08, cumulative = 0.000132058
ExecutionTime = 81.9 s  ClockTime = 82 s

Time = 77

smoothSolver:  Solving for Ux, Initial residual = 0.0014623, Final residual = 5.65959e-05, No Iterations 1
smoothSolver:  Solving for Uy, Initial residual = 0.00404414, Final residual = 0.000166162, No Iterations 1
GAMG:  Solving for p, Initial residual = 3.00435e-07, Final residual = 8.68642e-09, No Iterations 1
GAMG:  Solving for p, Initial residual = 1.52269e-08, Final residual = 1.01724e-09, No Iterations 3
GAMG:  Solving for p, Initial residual = 6.89017e-09, Final residual = 4.96226e-10, No Iterations 1
time step continuity errors : sum local = 7.24238e-07, global = -1.58012e-08, cumulative = 0.000132043
ExecutionTime = 83.61 s  ClockTime = 84 s

Time = 78

smoothSolver:  Solving for Ux, Initial residual = 0.00145711, Final residual = 5.62997e-05, No Iterations 1
smoothSolver:  Solving for Uy, Initial residual = 0.00400639, Final residual = 0.000164992, No Iterations 1
GAMG:  Solving for p, Initial residual = 2.98156e-07, Final residual = 9.26104e-09, No Iterations 1
GAMG:  Solving for p, Initial residual = 1.5097e-08, Final residual = 9.52373e-10, No Iterations 3
GAMG:  Solving for p, Initial residual = 7.27794e-09, Final residual = 5.26595e-10, No Iterations 1
time step continuity errors : sum local = 7.71562e-07, global = -3.74966e-08, cumulative = 0.000132005
ExecutionTime = 84.85 s  ClockTime = 85 s

Time = 79

smoothSolver:  Solving for Ux, Initial residual = 0.00145125, Final residual = 5.59131e-05, No Iterations 1
smoothSolver:  Solving for Uy, Initial residual = 0.00397516, Final residual = 0.000163861, No Iterations 1
GAMG:  Solving for p, Initial residual = 2.86624e-07, Final residual = 8.30596e-09, No Iterations 1
GAMG:  Solving for p, Initial residual = 1.4322e-08, Final residual = 8.78206e-10, No Iterations 3
GAMG:  Solving for p, Initial residual = 6.46947e-09, Final residual = 4.77966e-10, No Iterations 1
time step continuity errors : sum local = 7.03363e-07, global = -2.30199e-08, cumulative = 0.000131982
ExecutionTime = 85.76 s  ClockTime = 86 s

Time = 80

smoothSolver:  Solving for Ux, Initial residual = 0.00144471, Final residual = 5.53979e-05, No Iterations 1
smoothSolver:  Solving for Uy, Initial residual = 0.00394426, Final residual = 0.000162553, No Iterations 1
GAMG:  Solving for p, Initial residual = 2.8055e-07, Final residual = 7.94945e-09, No Iterations 1
GAMG:  Solving for p, Initial residual = 1.3466e-08, Final residual = 8.41975e-10, No Iterations 3
GAMG:  Solving for p, Initial residual = 6.33781e-09, Final residual = 4.54303e-10, No Iterations 1
time step continuity errors : sum local = 6.71616e-07, global = -1.82769e-08, cumulative = 0.000131964
ExecutionTime = 86.96 s  ClockTime = 87 s

Time = 81

smoothSolver:  Solving for Ux, Initial residual = 0.00143955, Final residual = 5.49459e-05, No Iterations 1
smoothSolver:  Solving for Uy, Initial residual = 0.0039066, Final residual = 0.000160942, No Iterations 1
GAMG:  Solving for p, Initial residual = 2.74998e-07, Final residual = 7.84988e-09, No Iterations 1
GAMG:  Solving for p, Initial residual = 1.33663e-08, Final residual = 7.92435e-10, No Iterations 3
GAMG:  Solving for p, Initial residual = 6.33417e-09, Final residual = 4.36834e-10, No Iterations 1
time step continuity errors : sum local = 6.48636e-07, global = -1.74268e-08, cumulative = 0.000131946
ExecutionTime = 88.57 s  ClockTime = 89 s

Time = 82

smoothSolver:  Solving for Ux, Initial residual = 0.00143469, Final residual = 5.46306e-05, No Iterations 1
smoothSolver:  Solving for Uy, Initial residual = 0.00387865, Final residual = 0.00015904, No Iterations 1
GAMG:  Solving for p, Initial residual = 2.69416e-07, Final residual = 7.93371e-09, No Iterations 1
GAMG:  Solving for p, Initial residual = 1.33999e-08, Final residual = 7.66598e-10, No Iterations 3
GAMG:  Solving for p, Initial residual = 6.39211e-09, Final residual = 4.30264e-10, No Iterations 1
time step continuity errors : sum local = 6.41641e-07, global = -1.85382e-08, cumulative = 0.000131928
ExecutionTime = 90.04 s  ClockTime = 91 s

Time = 83

smoothSolver:  Solving for Ux, Initial residual = 0.00142944, Final residual = 5.4446e-05, No Iterations 1
smoothSolver:  Solving for Uy, Initial residual = 0.00384386, Final residual = 0.000157261, No Iterations 1
GAMG:  Solving for p, Initial residual = 2.65463e-07, Final residual = 7.98246e-09, No Iterations 1
GAMG:  Solving for p, Initial residual = 1.3282e-08, Final residual = 8.01701e-10, No Iterations 3
GAMG:  Solving for p, Initial residual = 6.37398e-09, Final residual = 4.49107e-10, No Iterations 1
time step continuity errors : sum local = 6.72493e-07, global = -2.44819e-08, cumulative = 0.000131903
ExecutionTime = 91.6 s  ClockTime = 92 s

Time = 84

smoothSolver:  Solving for Ux, Initial residual = 0.0014257, Final residual = 5.43323e-05, No Iterations 1
smoothSolver:  Solving for Uy, Initial residual = 0.00381056, Final residual = 0.000155642, No Iterations 1
GAMG:  Solving for p, Initial residual = 2.69526e-07, Final residual = 8.24366e-09, No Iterations 1
GAMG:  Solving for p, Initial residual = 1.40853e-08, Final residual = 8.04082e-10, No Iterations 3
GAMG:  Solving for p, Initial residual = 6.45864e-09, Final residual = 4.50735e-10, No Iterations 1
time step continuity errors : sum local = 6.77451e-07, global = -2.18391e-08, cumulative = 0.000131882
ExecutionTime = 92.48 s  ClockTime = 93 s

Time = 85

smoothSolver:  Solving for Ux, Initial residual = 0.00142163, Final residual = 5.41001e-05, No Iterations 1
smoothSolver:  Solving for Uy, Initial residual = 0.00377989, Final residual = 0.000154207, No Iterations 1
GAMG:  Solving for p, Initial residual = 2.65594e-07, Final residual = 7.56005e-09, No Iterations 1
GAMG:  Solving for p, Initial residual = 1.31268e-08, Final residual = 8.63626e-10, No Iterations 3
GAMG:  Solving for p, Initial residual = 6.04888e-09, Final residual = 4.52661e-10, No Iterations 1
time step continuity errors : sum local = 6.8378e-07, global = -1.43727e-08, cumulative = 0.000131867
ExecutionTime = 93.38 s  ClockTime = 94 s

Time = 86

smoothSolver:  Solving for Ux, Initial residual = 0.00141748, Final residual = 5.38073e-05, No Iterations 1
smoothSolver:  Solving for Uy, Initial residual = 0.00374796, Final residual = 0.000152373, No Iterations 1
GAMG:  Solving for p, Initial residual = 2.55112e-07, Final residual = 7.15191e-09, No Iterations 1
GAMG:  Solving for p, Initial residual = 1.24334e-08, Final residual = 8.89725e-10, No Iterations 3
GAMG:  Solving for p, Initial residual = 5.66472e-09, Final residual = 4.99472e-10, No Iterations 1
time step continuity errors : sum local = 7.59285e-07, global = 4.72159e-10, cumulative = 0.000131868
ExecutionTime = 95 s  ClockTime = 96 s

Time = 87

smoothSolver:  Solving for Ux, Initial residual = 0.00141348, Final residual = 5.34984e-05, No Iterations 1
smoothSolver:  Solving for Uy, Initial residual = 0.00371441, Final residual = 0.000150829, No Iterations 1
GAMG:  Solving for p, Initial residual = 2.42568e-07, Final residual = 7.26398e-09, No Iterations 1
GAMG:  Solving for p, Initial residual = 1.22661e-08, Final residual = 8.09726e-10, No Iterations 3
GAMG:  Solving for p, Initial residual = 6.178e-09, Final residual = 4.53681e-10, No Iterations 1
time step continuity errors : sum local = 6.92495e-07, global = -1.7484e-08, cumulative = 0.00013185
ExecutionTime = 96.61 s  ClockTime = 97 s

Time = 88

smoothSolver:  Solving for Ux, Initial residual = 0.00140852, Final residual = 5.32563e-05, No Iterations 1
smoothSolver:  Solving for Uy, Initial residual = 0.00368371, Final residual = 0.000149444, No Iterations 1
GAMG:  Solving for p, Initial residual = 2.35634e-07, Final residual = 7.32154e-09, No Iterations 1
GAMG:  Solving for p, Initial residual = 1.2239e-08, Final residual = 7.45757e-10, No Iterations 3
GAMG:  Solving for p, Initial residual = 5.85329e-09, Final residual = 4.1605e-10, No Iterations 1
time step continuity errors : sum local = 6.37539e-07, global = -2.24504e-08, cumulative = 0.000131828
ExecutionTime = 98.28 s  ClockTime = 99 s

Time = 89

smoothSolver:  Solving for Ux, Initial residual = 0.00140335, Final residual = 5.29422e-05, No Iterations 1
smoothSolver:  Solving for Uy, Initial residual = 0.00365047, Final residual = 0.00014786, No Iterations 1
GAMG:  Solving for p, Initial residual = 2.38458e-07, Final residual = 7.47171e-09, No Iterations 1
GAMG:  Solving for p, Initial residual = 1.24302e-08, Final residual = 7.41174e-10, No Iterations 3
GAMG:  Solving for p, Initial residual = 6.14972e-09, Final residual = 4.13897e-10, No Iterations 1
time step continuity errors : sum local = 6.36315e-07, global = -2.68442e-08, cumulative = 0.000131801
ExecutionTime = 99.27 s  ClockTime = 100 s

Time = 90

smoothSolver:  Solving for Ux, Initial residual = 0.0013996, Final residual = 5.25868e-05, No Iterations 1
smoothSolver:  Solving for Uy, Initial residual = 0.00361322, Final residual = 0.000145746, No Iterations 1
GAMG:  Solving for p, Initial residual = 2.37125e-07, Final residual = 7.79151e-09, No Iterations 1
GAMG:  Solving for p, Initial residual = 1.25079e-08, Final residual = 7.46225e-10, No Iterations 3
GAMG:  Solving for p, Initial residual = 6.02294e-09, Final residual = 4.20559e-10, No Iterations 1
time step continuity errors : sum local = 6.48943e-07, global = -2.45189e-08, cumulative = 0.000131776
ExecutionTime = 100.17 s  ClockTime = 101 s

Time = 91

smoothSolver:  Solving for Ux, Initial residual = 0.00139501, Final residual = 5.20784e-05, No Iterations 1
smoothSolver:  Solving for Uy, Initial residual = 0.0035837, Final residual = 0.000144076, No Iterations 1
GAMG:  Solving for p, Initial residual = 2.35508e-07, Final residual = 7.267e-09, No Iterations 1
GAMG:  Solving for p, Initial residual = 1.20619e-08, Final residual = 7.17368e-10, No Iterations 3
GAMG:  Solving for p, Initial residual = 5.98726e-09, Final residual = 4.07566e-10, No Iterations 1
time step continuity errors : sum local = 6.31122e-07, global = -2.34731e-08, cumulative = 0.000131753
ExecutionTime = 101.17 s  ClockTime = 102 s

Time = 92

smoothSolver:  Solving for Ux, Initial residual = 0.00139131, Final residual = 5.17486e-05, No Iterations 1
smoothSolver:  Solving for Uy, Initial residual = 0.00355598, Final residual = 0.000142405, No Iterations 1
GAMG:  Solving for p, Initial residual = 2.25742e-07, Final residual = 6.62573e-09, No Iterations 1
GAMG:  Solving for p, Initial residual = 1.08439e-08, Final residual = 7.20852e-10, No Iterations 3
GAMG:  Solving for p, Initial residual = 5.59607e-09, Final residual = 3.89486e-10, No Iterations 1
time step continuity errors : sum local = 6.05886e-07, global = -1.99131e-08, cumulative = 0.000131733
ExecutionTime = 102.6 s  ClockTime = 103 s

Time = 93

smoothSolver:  Solving for Ux, Initial residual = 0.00138863, Final residual = 5.14658e-05, No Iterations 1
smoothSolver:  Solving for Uy, Initial residual = 0.00352365, Final residual = 0.000141059, No Iterations 1
GAMG:  Solving for p, Initial residual = 2.23825e-07, Final residual = 6.82854e-09, No Iterations 1
GAMG:  Solving for p, Initial residual = 1.11172e-08, Final residual = 7.33695e-10, No Iterations 3
GAMG:  Solving for p, Initial residual = 5.70551e-09, Final residual = 3.98867e-10, No Iterations 1
time step continuity errors : sum local = 6.23199e-07, global = -1.94361e-08, cumulative = 0.000131714
ExecutionTime = 104.17 s  ClockTime = 105 s

Time = 94

smoothSolver:  Solving for Ux, Initial residual = 0.00138497, Final residual = 5.12563e-05, No Iterations 1
smoothSolver:  Solving for Uy, Initial residual = 0.00349508, Final residual = 0.000139932, No Iterations 1
GAMG:  Solving for p, Initial residual = 2.15468e-07, Final residual = 6.96693e-09, No Iterations 1
GAMG:  Solving for p, Initial residual = 1.1196e-08, Final residual = 7.24696e-10, No Iterations 3
GAMG:  Solving for p, Initial residual = 5.96315e-09, Final residual = 4.10929e-10, No Iterations 1
time step continuity errors : sum local = 6.44339e-07, global = -2.86677e-08, cumulative = 0.000131685
ExecutionTime = 105.67 s  ClockTime = 106 s

Time = 95

smoothSolver:  Solving for Ux, Initial residual = 0.00138165, Final residual = 5.11817e-05, No Iterations 1
smoothSolver:  Solving for Uy, Initial residual = 0.00346398, Final residual = 0.000138729, No Iterations 1
GAMG:  Solving for p, Initial residual = 2.13616e-07, Final residual = 7.13879e-09, No Iterations 1
GAMG:  Solving for p, Initial residual = 1.14098e-08, Final residual = 7.3843e-10, No Iterations 3
GAMG:  Solving for p, Initial residual = 6.18597e-09, Final residual = 4.28766e-10, No Iterations 1
time step continuity errors : sum local = 6.74113e-07, global = -3.41344e-08, cumulative = 0.000131651
ExecutionTime = 106.59 s  ClockTime = 107 s

Time = 96

smoothSolver:  Solving for Ux, Initial residual = 0.00137949, Final residual = 5.10608e-05, No Iterations 1
smoothSolver:  Solving for Uy, Initial residual = 0.00343224, Final residual = 0.000137667, No Iterations 1
GAMG:  Solving for p, Initial residual = 2.13815e-07, Final residual = 7.40009e-09, No Iterations 1
GAMG:  Solving for p, Initial residual = 1.16742e-08, Final residual = 7.70821e-10, No Iterations 3
GAMG:  Solving for p, Initial residual = 6.2338e-09, Final residual = 4.46008e-10, No Iterations 1
time step continuity errors : sum local = 7.03073e-07, global = -3.78161e-08, cumulative = 0.000131613
ExecutionTime = 107.52 s  ClockTime = 108 s

Time = 97

smoothSolver:  Solving for Ux, Initial residual = 0.0013769, Final residual = 5.08984e-05, No Iterations 1
smoothSolver:  Solving for Uy, Initial residual = 0.00340259, Final residual = 0.000136341, No Iterations 1
GAMG:  Solving for p, Initial residual = 2.16768e-07, Final residual = 7.45902e-09, No Iterations 1
GAMG:  Solving for p, Initial residual = 1.17705e-08, Final residual = 7.73734e-10, No Iterations 3
GAMG:  Solving for p, Initial residual = 6.07784e-09, Final residual = 4.41251e-10, No Iterations 1
time step continuity errors : sum local = 6.97588e-07, global = -3.57861e-08, cumulative = 0.000131577
ExecutionTime = 109.08 s  ClockTime = 110 s

Time = 98

smoothSolver:  Solving for Ux, Initial residual = 0.00137379, Final residual = 5.08483e-05, No Iterations 1
smoothSolver:  Solving for Uy, Initial residual = 0.00337538, Final residual = 0.000135357, No Iterations 1
GAMG:  Solving for p, Initial residual = 2.15762e-07, Final residual = 6.78867e-09, No Iterations 1
GAMG:  Solving for p, Initial residual = 1.1263e-08, Final residual = 7.57318e-10, No Iterations 3
GAMG:  Solving for p, Initial residual = 5.41355e-09, Final residual = 4.04118e-10, No Iterations 1
time step continuity errors : sum local = 6.41821e-07, global = -1.90185e-08, cumulative = 0.000131558
ExecutionTime = 110.67 s  ClockTime = 111 s

Time = 99

smoothSolver:  Solving for Ux, Initial residual = 0.00137013, Final residual = 5.08398e-05, No Iterations 1
smoothSolver:  Solving for Uy, Initial residual = 0.00334302, Final residual = 0.000134541, No Iterations 1
GAMG:  Solving for p, Initial residual = 2.18108e-07, Final residual = 6.57723e-09, No Iterations 1
GAMG:  Solving for p, Initial residual = 1.07833e-08, Final residual = 7.35291e-10, No Iterations 3
GAMG:  Solving for p, Initial residual = 5.43549e-09, Final residual = 4.14698e-10, No Iterations 1
time step continuity errors : sum local = 6.61735e-07, global = -1.65363e-08, cumulative = 0.000131542
ExecutionTime = 112.13 s  ClockTime = 113 s

Time = 100

smoothSolver:  Solving for Ux, Initial residual = 0.00136632, Final residual = 5.07981e-05, No Iterations 1
smoothSolver:  Solving for Uy, Initial residual = 0.00331233, Final residual = 0.00013343, No Iterations 1
GAMG:  Solving for p, Initial residual = 2.07633e-07, Final residual = 6.84702e-09, No Iterations 1
GAMG:  Solving for p, Initial residual = 1.11643e-08, Final residual = 7.46725e-10, No Iterations 3
GAMG:  Solving for p, Initial residual = 6.00565e-09, Final residual = 4.34339e-10, No Iterations 1
time step continuity errors : sum local = 6.95383e-07, global = -3.0692e-08, cumulative = 0.000131511
ExecutionTime = 113.22 s  ClockTime = 114 s

Time = 101

smoothSolver:  Solving for Ux, Initial residual = 0.00136273, Final residual = 5.08561e-05, No Iterations 1
smoothSolver:  Solving for Uy, Initial residual = 0.00328652, Final residual = 0.000132648, No Iterations 1
GAMG:  Solving for p, Initial residual = 1.99034e-07, Final residual = 6.59634e-09, No Iterations 1
GAMG:  Solving for p, Initial residual = 1.08145e-08, Final residual = 6.87625e-10, No Iterations 3
GAMG:  Solving for p, Initial residual = 5.91884e-09, Final residual = 4.04114e-10, No Iterations 1
time step continuity errors : sum local = 6.48647e-07, global = -3.06697e-08, cumulative = 0.00013148
ExecutionTime = 114.57 s  ClockTime = 115 s

Time = 102

smoothSolver:  Solving for Ux, Initial residual = 0.00136007, Final residual = 5.08079e-05, No Iterations 1
smoothSolver:  Solving for Uy, Initial residual = 0.00326122, Final residual = 0.000131714, No Iterations 1
GAMG:  Solving for p, Initial residual = 1.97389e-07, Final residual = 6.51407e-09, No Iterations 1
GAMG:  Solving for p, Initial residual = 1.0535e-08, Final residual = 6.77666e-10, No Iterations 3
GAMG:  Solving for p, Initial residual = 5.96214e-09, Final residual = 3.98128e-10, No Iterations 1
time step continuity errors : sum local = 6.40554e-07, global = -3.1383e-08, cumulative = 0.000131449
ExecutionTime = 115.57 s  ClockTime = 116 s

Time = 103

smoothSolver:  Solving for Ux, Initial residual = 0.00135907, Final residual = 5.07581e-05, No Iterations 1
smoothSolver:  Solving for Uy, Initial residual = 0.00323664, Final residual = 0.000130832, No Iterations 1
GAMG:  Solving for p, Initial residual = 2.00593e-07, Final residual = 6.37711e-09, No Iterations 1
GAMG:  Solving for p, Initial residual = 1.02589e-08, Final residual = 6.77263e-10, No Iterations 3
GAMG:  Solving for p, Initial residual = 5.91322e-09, Final residual = 3.97182e-10, No Iterations 1
time step continuity errors : sum local = 6.40665e-07, global = -2.83666e-08, cumulative = 0.00013142
ExecutionTime = 117.21 s  ClockTime = 118 s

Time = 104

smoothSolver:  Solving for Ux, Initial residual = 0.00135724, Final residual = 5.06093e-05, No Iterations 1
smoothSolver:  Solving for Uy, Initial residual = 0.00321455, Final residual = 0.000129954, No Iterations 1
GAMG:  Solving for p, Initial residual = 1.98972e-07, Final residual = 6.27679e-09, No Iterations 1
GAMG:  Solving for p, Initial residual = 1.02495e-08, Final residual = 6.49153e-10, No Iterations 3
GAMG:  Solving for p, Initial residual = 5.79387e-09, Final residual = 3.84481e-10, No Iterations 1
time step continuity errors : sum local = 6.21895e-07, global = -2.07052e-08, cumulative = 0.0001314
ExecutionTime = 118.71 s  ClockTime = 119 s

Time = 105

smoothSolver:  Solving for Ux, Initial residual = 0.00135422, Final residual = 5.04664e-05, No Iterations 1
smoothSolver:  Solving for Uy, Initial residual = 0.00319431, Final residual = 0.000129189, No Iterations 1
GAMG:  Solving for p, Initial residual = 1.96571e-07, Final residual = 6.2423e-09, No Iterations 1
GAMG:  Solving for p, Initial residual = 1.0209e-08, Final residual = 6.47379e-10, No Iterations 3
GAMG:  Solving for p, Initial residual = 5.50565e-09, Final residual = 3.78637e-10, No Iterations 1
time step continuity errors : sum local = 6.14536e-07, global = -1.48036e-08, cumulative = 0.000131385
ExecutionTime = 120.32 s  ClockTime = 121 s

Time = 106

smoothSolver:  Solving for Ux, Initial residual = 0.00135153, Final residual = 5.03945e-05, No Iterations 1
smoothSolver:  Solving for Uy, Initial residual = 0.00317154, Final residual = 0.000128101, No Iterations 1
GAMG:  Solving for p, Initial residual = 1.92819e-07, Final residual = 6.30817e-09, No Iterations 1
GAMG:  Solving for p, Initial residual = 1.05115e-08, Final residual = 6.69603e-10, No Iterations 3
GAMG:  Solving for p, Initial residual = 5.73159e-09, Final residual = 3.92463e-10, No Iterations 1
time step continuity errors : sum local = 6.39051e-07, global = -1.78093e-08, cumulative = 0.000131367
ExecutionTime = 121.38 s  ClockTime = 122 s

Time = 107

smoothSolver:  Solving for Ux, Initial residual = 0.00134942, Final residual = 5.0299e-05, No Iterations 1
smoothSolver:  Solving for Uy, Initial residual = 0.00315302, Final residual = 0.000126993, No Iterations 1
GAMG:  Solving for p, Initial residual = 1.91158e-07, Final residual = 6.34688e-09, No Iterations 1
GAMG:  Solving for p, Initial residual = 1.09604e-08, Final residual = 6.89679e-10, No Iterations 3
GAMG:  Solving for p, Initial residual = 5.90008e-09, Final residual = 4.04932e-10, No Iterations 1
time step continuity errors : sum local = 6.61386e-07, global = -2.13316e-08, cumulative = 0.000131346
ExecutionTime = 122.33 s  ClockTime = 123 s

Time = 108

smoothSolver:  Solving for Ux, Initial residual = 0.00134825, Final residual = 5.03654e-05, No Iterations 1
smoothSolver:  Solving for Uy, Initial residual = 0.00313111, Final residual = 0.000125721, No Iterations 1
GAMG:  Solving for p, Initial residual = 1.87925e-07, Final residual = 6.29006e-09, No Iterations 1
GAMG:  Solving for p, Initial residual = 1.04977e-08, Final residual = 6.76077e-10, No Iterations 3
GAMG:  Solving for p, Initial residual = 5.71503e-09, Final residual = 4.05288e-10, No Iterations 1
time step continuity errors : sum local = 6.63988e-07, global = -2.04684e-08, cumulative = 0.000131325
ExecutionTime = 123.66 s  ClockTime = 124 s

Time = 109

smoothSolver:  Solving for Ux, Initial residual = 0.00134788, Final residual = 5.04919e-05, No Iterations 1
smoothSolver:  Solving for Uy, Initial residual = 0.00311062, Final residual = 0.000124737, No Iterations 1
GAMG:  Solving for p, Initial residual = 1.85197e-07, Final residual = 6.33163e-09, No Iterations 1
GAMG:  Solving for p, Initial residual = 1.08352e-08, Final residual = 6.77294e-10, No Iterations 3
GAMG:  Solving for p, Initial residual = 5.75981e-09, Final residual = 4.03388e-10, No Iterations 1
time step continuity errors : sum local = 6.62783e-07, global = -2.32941e-08, cumulative = 0.000131302
ExecutionTime = 125.16 s  ClockTime = 126 s

Time = 110

smoothSolver:  Solving for Ux, Initial residual = 0.00134726, Final residual = 5.0572e-05, No Iterations 1
smoothSolver:  Solving for Uy, Initial residual = 0.00309344, Final residual = 0.000123505, No Iterations 1
GAMG:  Solving for p, Initial residual = 1.81648e-07, Final residual = 6.3704e-09, No Iterations 1
GAMG:  Solving for p, Initial residual = 1.07401e-08, Final residual = 6.58243e-10, No Iterations 3
GAMG:  Solving for p, Initial residual = 5.60966e-09, Final residual = 3.91366e-10, No Iterations 1
time step continuity errors : sum local = 6.44875e-07, global = -1.76601e-08, cumulative = 0.000131284
ExecutionTime = 126.61 s  ClockTime = 127 s

Time = 111

smoothSolver:  Solving for Ux, Initial residual = 0.00134759, Final residual = 5.064e-05, No Iterations 1
smoothSolver:  Solving for Uy, Initial residual = 0.00307798, Final residual = 0.000122134, No Iterations 1
GAMG:  Solving for p, Initial residual = 1.79484e-07, Final residual = 6.63154e-09, No Iterations 1
GAMG:  Solving for p, Initial residual = 1.0631e-08, Final residual = 6.61608e-10, No Iterations 3
GAMG:  Solving for p, Initial residual = 5.5479e-09, Final residual = 3.88723e-10, No Iterations 1
time step continuity errors : sum local = 6.42542e-07, global = -1.61048e-08, cumulative = 0.000131268
ExecutionTime = 127.54 s  ClockTime = 128 s

Time = 112

smoothSolver:  Solving for Ux, Initial residual = 0.00134788, Final residual = 5.0696e-05, No Iterations 1
smoothSolver:  Solving for Uy, Initial residual = 0.00306322, Final residual = 0.000121021, No Iterations 1
GAMG:  Solving for p, Initial residual = 1.81646e-07, Final residual = 6.67579e-09, No Iterations 1
GAMG:  Solving for p, Initial residual = 1.06473e-08, Final residual = 6.90549e-10, No Iterations 3
GAMG:  Solving for p, Initial residual = 5.62566e-09, Final residual = 4.03849e-10, No Iterations 1
time step continuity errors : sum local = 6.69601e-07, global = -1.58523e-08, cumulative = 0.000131252
ExecutionTime = 128.43 s  ClockTime = 129 s

Time = 113

smoothSolver:  Solving for Ux, Initial residual = 0.00134836, Final residual = 5.08139e-05, No Iterations 1
smoothSolver:  Solving for Uy, Initial residual = 0.00305037, Final residual = 0.000120103, No Iterations 1
GAMG:  Solving for p, Initial residual = 1.82043e-07, Final residual = 6.76897e-09, No Iterations 1
GAMG:  Solving for p, Initial residual = 1.07162e-08, Final residual = 7.1138e-10, No Iterations 3
GAMG:  Solving for p, Initial residual = 5.61796e-09, Final residual = 4.10881e-10, No Iterations 1
time step continuity errors : sum local = 6.83249e-07, global = -1.94357e-08, cumulative = 0.000131233
ExecutionTime = 129.33 s  ClockTime = 130 s

Time = 114

smoothSolver:  Solving for Ux, Initial residual = 0.00134904, Final residual = 5.09452e-05, No Iterations 1
smoothSolver:  Solving for Uy, Initial residual = 0.00303697, Final residual = 0.000119637, No Iterations 1
GAMG:  Solving for p, Initial residual = 1.8221e-07, Final residual = 6.55445e-09, No Iterations 1
GAMG:  Solving for p, Initial residual = 1.08542e-08, Final residual = 6.96161e-10, No Iterations 3
GAMG:  Solving for p, Initial residual = 5.42555e-09, Final residual = 4.00816e-10, No Iterations 1
time step continuity errors : sum local = 6.68529e-07, global = -1.97042e-08, cumulative = 0.000131213
ExecutionTime = 130.67 s  ClockTime = 131 s

Time = 115

smoothSolver:  Solving for Ux, Initial residual = 0.00134797, Final residual = 5.10032e-05, No Iterations 1
smoothSolver:  Solving for Uy, Initial residual = 0.00302395, Final residual = 0.00011908, No Iterations 1
GAMG:  Solving for p, Initial residual = 1.79552e-07, Final residual = 6.33312e-09, No Iterations 1
GAMG:  Solving for p, Initial residual = 1.03315e-08, Final residual = 6.80894e-10, No Iterations 3
GAMG:  Solving for p, Initial residual = 5.14284e-09, Final residual = 3.90943e-10, No Iterations 1
time step continuity errors : sum local = 6.54338e-07, global = -8.83334e-09, cumulative = 0.000131204
ExecutionTime = 132.26 s  ClockTime = 133 s

Time = 116

smoothSolver:  Solving for Ux, Initial residual = 0.00134722, Final residual = 5.10164e-05, No Iterations 1
smoothSolver:  Solving for Uy, Initial residual = 0.00300867, Final residual = 0.000118813, No Iterations 1
GAMG:  Solving for p, Initial residual = 1.78003e-07, Final residual = 6.27368e-09, No Iterations 1
GAMG:  Solving for p, Initial residual = 1.01842e-08, Final residual = 6.99594e-10, No Iterations 3
GAMG:  Solving for p, Initial residual = 5.14314e-09, Final residual = 4.01214e-10, No Iterations 1
time step continuity errors : sum local = 6.73887e-07, global = -1.21493e-08, cumulative = 0.000131192
ExecutionTime = 134.01 s  ClockTime = 135 s

Time = 117

smoothSolver:  Solving for Ux, Initial residual = 0.00134788, Final residual = 5.10683e-05, No Iterations 1
smoothSolver:  Solving for Uy, Initial residual = 0.00299198, Final residual = 0.00011878, No Iterations 1
GAMG:  Solving for p, Initial residual = 1.80622e-07, Final residual = 6.51133e-09, No Iterations 1
[...]
GAMG:  Solving for p, Initial residual = 1.10811e-08, Final residual = 9.87616e-10, No Iterations 2
GAMG:  Solving for p, Initial residual = 3.00951e-09, Final residual = 2.09468e-10, No Iterations 2
time step continuity errors : sum local = 7.42518e-07, global = 4.11689e-08, cumulative = 0.000183295
ExecutionTime = 4187.24 s  ClockTime = 4199 s

Time = 3008

smoothSolver:  Solving for Ux, Initial residual = 0.00105344, Final residual = 4.46327e-05, No Iterations 1
smoothSolver:  Solving for Uy, Initial residual = 0.00252944, Final residual = 0.000108526, No Iterations 1
GAMG:  Solving for p, Initial residual = 1.95378e-07, Final residual = 7.613e-09, No Iterations 1
GAMG:  Solving for p, Initial residual = 1.08492e-08, Final residual = 9.94756e-10, No Iterations 2
GAMG:  Solving for p, Initial residual = 3.1121e-09, Final residual = 2.65299e-10, No Iterations 2
time step continuity errors : sum local = 9.40322e-07, global = 2.59231e-08, cumulative = 0.000183321
ExecutionTime = 4188.51 s  ClockTime = 4200 s

Time = 3009

smoothSolver:  Solving for Ux, Initial residual = 0.00105061, Final residual = 4.4698e-05, No Iterations 1
smoothSolver:  Solving for Uy, Initial residual = 0.00252264, Final residual = 0.000107581, No Iterations 1
GAMG:  Solving for p, Initial residual = 2.16221e-07, Final residual = 8.37021e-09, No Iterations 1
GAMG:  Solving for p, Initial residual = 1.18825e-08, Final residual = 1.13512e-09, No Iterations 2
GAMG:  Solving for p, Initial residual = 3.46289e-09, Final residual = 3.03704e-10, No Iterations 2
time step continuity errors : sum local = 1.07576e-06, global = 9.56268e-09, cumulative = 0.000183331
ExecutionTime = 4189.75 s  ClockTime = 4202 s

Time = 3010

smoothSolver:  Solving for Ux, Initial residual = 0.00105254, Final residual = 4.51135e-05, No Iterations 1
smoothSolver:  Solving for Uy, Initial residual = 0.00251601, Final residual = 0.000107081, No Iterations 1
GAMG:  Solving for p, Initial residual = 2.0143e-07, Final residual = 8.27443e-09, No Iterations 1
GAMG:  Solving for p, Initial residual = 1.1343e-08, Final residual = 5.82236e-10, No Iterations 3
GAMG:  Solving for p, Initial residual = 3.3253e-09, Final residual = 2.00907e-10, No Iterations 2
time step continuity errors : sum local = 7.11287e-07, global = 1.40556e-08, cumulative = 0.000183345
ExecutionTime = 4191.32 s  ClockTime = 4203 s

Time = 3011

smoothSolver:  Solving for Ux, Initial residual = 0.00105191, Final residual = 4.54769e-05, No Iterations 1
smoothSolver:  Solving for Uy, Initial residual = 0.00251075, Final residual = 0.00010629, No Iterations 1
GAMG:  Solving for p, Initial residual = 2.00194e-07, Final residual = 8.07949e-09, No Iterations 1
GAMG:  Solving for p, Initial residual = 1.1047e-08, Final residual = 1.10419e-09, No Iterations 2
GAMG:  Solving for p, Initial residual = 3.26356e-09, Final residual = 2.76957e-10, No Iterations 2
time step continuity errors : sum local = 9.8081e-07, global = 4.62139e-08, cumulative = 0.000183391
ExecutionTime = 4192.47 s  ClockTime = 4204 s

Time = 3012

smoothSolver:  Solving for Ux, Initial residual = 0.00105306, Final residual = 4.56032e-05, No Iterations 1
smoothSolver:  Solving for Uy, Initial residual = 0.00250728, Final residual = 0.00010573, No Iterations 1
GAMG:  Solving for p, Initial residual = 1.9189e-07, Final residual = 7.78273e-09, No Iterations 1
GAMG:  Solving for p, Initial residual = 1.09922e-08, Final residual = 1.05738e-09, No Iterations 2
GAMG:  Solving for p, Initial residual = 3.38045e-09, Final residual = 2.51667e-10, No Iterations 2
time step continuity errors : sum local = 8.91816e-07, global = 8.3862e-08, cumulative = 0.000183475
ExecutionTime = 4193.72 s  ClockTime = 4206 s

Time = 3013

smoothSolver:  Solving for Ux, Initial residual = 0.00105272, Final residual = 4.54057e-05, No Iterations 1
smoothSolver:  Solving for Uy, Initial residual = 0.0025045, Final residual = 0.000105595, No Iterations 1
GAMG:  Solving for p, Initial residual = 2.01022e-07, Final residual = 8.22733e-09, No Iterations 1
GAMG:  Solving for p, Initial residual = 1.17808e-08, Final residual = 1.08216e-09, No Iterations 2
GAMG:  Solving for p, Initial residual = 3.68579e-09, Final residual = 2.47346e-10, No Iterations 2
time step continuity errors : sum local = 8.76969e-07, global = 9.10581e-08, cumulative = 0.000183566
ExecutionTime = 4195 s  ClockTime = 4207 s

Time = 3014

smoothSolver:  Solving for Ux, Initial residual = 0.00105263, Final residual = 4.49275e-05, No Iterations 1
smoothSolver:  Solving for Uy, Initial residual = 0.00250847, Final residual = 0.000105326, No Iterations 1
GAMG:  Solving for p, Initial residual = 2.0612e-07, Final residual = 7.77124e-09, No Iterations 1
GAMG:  Solving for p, Initial residual = 1.10218e-08, Final residual = 1.02406e-09, No Iterations 2
GAMG:  Solving for p, Initial residual = 3.17118e-09, Final residual = 2.34943e-10, No Iterations 2
time step continuity errors : sum local = 8.33154e-07, global = 7.81761e-08, cumulative = 0.000183644
ExecutionTime = 4195.87 s  ClockTime = 4208 s

Time = 3015

smoothSolver:  Solving for Ux, Initial residual = 0.00105414, Final residual = 4.45592e-05, No Iterations 1
smoothSolver:  Solving for Uy, Initial residual = 0.00250727, Final residual = 0.000105064, No Iterations 1
GAMG:  Solving for p, Initial residual = 1.9626e-07, Final residual = 7.53324e-09, No Iterations 1
GAMG:  Solving for p, Initial residual = 1.04442e-08, Final residual = 4.82999e-10, No Iterations 3
GAMG:  Solving for p, Initial residual = 3.18157e-09, Final residual = 2.86389e-10, No Iterations 1
time step continuity errors : sum local = 1.01602e-06, global = 6.58915e-08, cumulative = 0.00018371
ExecutionTime = 4197.24 s  ClockTime = 4209 s

Time = 3016

smoothSolver:  Solving for Ux, Initial residual = 0.00105462, Final residual = 4.46116e-05, No Iterations 1
smoothSolver:  Solving for Uy, Initial residual = 0.00250332, Final residual = 0.000105677, No Iterations 1
GAMG:  Solving for p, Initial residual = 2.04084e-07, Final residual = 7.71458e-09, No Iterations 1
GAMG:  Solving for p, Initial residual = 1.07949e-08, Final residual = 1.02167e-09, No Iterations 2
GAMG:  Solving for p, Initial residual = 3.20951e-09, Final residual = 2.42403e-10, No Iterations 2
time step continuity errors : sum local = 8.60024e-07, global = 6.22292e-08, cumulative = 0.000183772
ExecutionTime = 4198.47 s  ClockTime = 4211 s

Time = 3017

smoothSolver:  Solving for Ux, Initial residual = 0.0010549, Final residual = 4.49416e-05, No Iterations 1
smoothSolver:  Solving for Uy, Initial residual = 0.00250554, Final residual = 0.000105806, No Iterations 1
GAMG:  Solving for p, Initial residual = 1.9253e-07, Final residual = 7.5509e-09, No Iterations 1
GAMG:  Solving for p, Initial residual = 1.06393e-08, Final residual = 1.00968e-09, No Iterations 2
GAMG:  Solving for p, Initial residual = 3.03353e-09, Final residual = 2.43047e-10, No Iterations 2
time step continuity errors : sum local = 8.62574e-07, global = 7.06047e-08, cumulative = 0.000183843
ExecutionTime = 4199.66 s  ClockTime = 4212 s

Time = 3018

smoothSolver:  Solving for Ux, Initial residual = 0.00105433, Final residual = 4.5262e-05, No Iterations 1
smoothSolver:  Solving for Uy, Initial residual = 0.00250464, Final residual = 0.000105254, No Iterations 1
GAMG:  Solving for p, Initial residual = 2.14219e-07, Final residual = 7.89753e-09, No Iterations 1
GAMG:  Solving for p, Initial residual = 1.20972e-08, Final residual = 9.99491e-10, No Iterations 2
GAMG:  Solving for p, Initial residual = 3.27966e-09, Final residual = 2.44991e-10, No Iterations 2
time step continuity errors : sum local = 8.69883e-07, global = 6.35229e-08, cumulative = 0.000183906
ExecutionTime = 4201.07 s  ClockTime = 4213 s

Time = 3019

smoothSolver:  Solving for Ux, Initial residual = 0.00105499, Final residual = 4.54217e-05, No Iterations 1
smoothSolver:  Solving for Uy, Initial residual = 0.00250252, Final residual = 0.000105114, No Iterations 1
GAMG:  Solving for p, Initial residual = 1.96211e-07, Final residual = 8.04236e-09, No Iterations 1
GAMG:  Solving for p, Initial residual = 1.09538e-08, Final residual = 1.03455e-09, No Iterations 2
GAMG:  Solving for p, Initial residual = 3.00595e-09, Final residual = 2.44198e-10, No Iterations 2
time step continuity errors : sum local = 8.68099e-07, global = 6.02406e-08, cumulative = 0.000183967
ExecutionTime = 4202.33 s  ClockTime = 4214 s

Time = 3020

smoothSolver:  Solving for Ux, Initial residual = 0.00105421, Final residual = 4.54457e-05, No Iterations 1
smoothSolver:  Solving for Uy, Initial residual = 0.00249653, Final residual = 0.000105007, No Iterations 1
GAMG:  Solving for p, Initial residual = 1.91566e-07, Final residual = 7.83891e-09, No Iterations 1
GAMG:  Solving for p, Initial residual = 1.08361e-08, Final residual = 4.9871e-10, No Iterations 3
GAMG:  Solving for p, Initial residual = 3.31977e-09, Final residual = 2.94822e-10, No Iterations 1
time step continuity errors : sum local = 1.04903e-06, global = 6.57921e-08, cumulative = 0.000184032
ExecutionTime = 4203.44 s  ClockTime = 4215 s

Time = 3021

smoothSolver:  Solving for Ux, Initial residual = 0.00105547, Final residual = 4.53743e-05, No Iterations 1
smoothSolver:  Solving for Uy, Initial residual = 0.00249697, Final residual = 0.000105432, No Iterations 1
GAMG:  Solving for p, Initial residual = 1.8979e-07, Final residual = 7.60688e-09, No Iterations 1
GAMG:  Solving for p, Initial residual = 1.07155e-08, Final residual = 1.03212e-09, No Iterations 2
GAMG:  Solving for p, Initial residual = 3.25253e-09, Final residual = 2.55767e-10, No Iterations 2
time step continuity errors : sum local = 9.09926e-07, global = 6.22569e-08, cumulative = 0.000184095
ExecutionTime = 4204.58 s  ClockTime = 4217 s

Time = 3022

smoothSolver:  Solving for Ux, Initial residual = 0.00105652, Final residual = 4.53985e-05, No Iterations 1
smoothSolver:  Solving for Uy, Initial residual = 0.0024992, Final residual = 0.000105601, No Iterations 1
GAMG:  Solving for p, Initial residual = 2.2982e-07, Final residual = 8.05082e-09, No Iterations 1
GAMG:  Solving for p, Initial residual = 1.15892e-08, Final residual = 9.95257e-10, No Iterations 2
GAMG:  Solving for p, Initial residual = 3.17499e-09, Final residual = 2.37676e-10, No Iterations 2
time step continuity errors : sum local = 8.4553e-07, global = 5.50785e-08, cumulative = 0.00018415
ExecutionTime = 4205.77 s  ClockTime = 4218 s

Time = 3023

smoothSolver:  Solving for Ux, Initial residual = 0.0010564, Final residual = 4.53645e-05, No Iterations 1
smoothSolver:  Solving for Uy, Initial residual = 0.00249885, Final residual = 0.000105618, No Iterations 1
GAMG:  Solving for p, Initial residual = 2.01672e-07, Final residual = 8.09612e-09, No Iterations 1
GAMG:  Solving for p, Initial residual = 1.11008e-08, Final residual = 1.03412e-09, No Iterations 2
GAMG:  Solving for p, Initial residual = 3.22477e-09, Final residual = 2.1842e-10, No Iterations 2
time step continuity errors : sum local = 7.7716e-07, global = 4.79771e-08, cumulative = 0.000184198
ExecutionTime = 4207.23 s  ClockTime = 4219 s

Time = 3024

smoothSolver:  Solving for Ux, Initial residual = 0.00105546, Final residual = 4.57152e-05, No Iterations 1
smoothSolver:  Solving for Uy, Initial residual = 0.00249366, Final residual = 0.000105361, No Iterations 1
GAMG:  Solving for p, Initial residual = 1.90925e-07, Final residual = 7.6107e-09, No Iterations 1
GAMG:  Solving for p, Initial residual = 1.03581e-08, Final residual = 1.0341e-09, No Iterations 2
GAMG:  Solving for p, Initial residual = 2.95872e-09, Final residual = 2.62061e-10, No Iterations 2
time step continuity errors : sum local = 9.32796e-07, global = 5.40165e-08, cumulative = 0.000184252
ExecutionTime = 4208.51 s  ClockTime = 4221 s

Time = 3025

smoothSolver:  Solving for Ux, Initial residual = 0.00105609, Final residual = 4.61723e-05, No Iterations 1
smoothSolver:  Solving for Uy, Initial residual = 0.00249613, Final residual = 0.000105533, No Iterations 1
GAMG:  Solving for p, Initial residual = 1.96332e-07, Final residual = 7.66885e-09, No Iterations 1
GAMG:  Solving for p, Initial residual = 1.04217e-08, Final residual = 1.02815e-09, No Iterations 2
GAMG:  Solving for p, Initial residual = 3.09071e-09, Final residual = 2.5034e-10, No Iterations 2
time step continuity errors : sum local = 8.91249e-07, global = 6.30583e-08, cumulative = 0.000184315
ExecutionTime = 4209.75 s  ClockTime = 4222 s

Time = 3026

smoothSolver:  Solving for Ux, Initial residual = 0.00105628, Final residual = 4.62899e-05, No Iterations 1
smoothSolver:  Solving for Uy, Initial residual = 0.00250349, Final residual = 0.000106262, No Iterations 1
GAMG:  Solving for p, Initial residual = 1.98525e-07, Final residual = 8.1191e-09, No Iterations 1
GAMG:  Solving for p, Initial residual = 1.0914e-08, Final residual = 1.07045e-09, No Iterations 2
GAMG:  Solving for p, Initial residual = 3.33026e-09, Final residual = 2.77964e-10, No Iterations 2
time step continuity errors : sum local = 9.89745e-07, global = 6.75184e-08, cumulative = 0.000184382
ExecutionTime = 4211.28 s  ClockTime = 4223 s

Time = 3027

smoothSolver:  Solving for Ux, Initial residual = 0.00105491, Final residual = 4.59742e-05, No Iterations 1
smoothSolver:  Solving for Uy, Initial residual = 0.00250495, Final residual = 0.00010643, No Iterations 1
GAMG:  Solving for p, Initial residual = 1.95831e-07, Final residual = 8.0322e-09, No Iterations 1
GAMG:  Solving for p, Initial residual = 1.08098e-08, Final residual = 1.0621e-09, No Iterations 2
GAMG:  Solving for p, Initial residual = 3.19296e-09, Final residual = 2.94911e-10, No Iterations 2
time step continuity errors : sum local = 1.05057e-06, global = 5.58951e-08, cumulative = 0.000184438
ExecutionTime = 4212.3 s  ClockTime = 4224 s

Time = 3028

smoothSolver:  Solving for Ux, Initial residual = 0.00105434, Final residual = 4.56711e-05, No Iterations 1
smoothSolver:  Solving for Uy, Initial residual = 0.00249911, Final residual = 0.000106096, No Iterations 1
GAMG:  Solving for p, Initial residual = 1.93918e-07, Final residual = 7.64802e-09, No Iterations 1
GAMG:  Solving for p, Initial residual = 1.04793e-08, Final residual = 4.85441e-10, No Iterations 3
GAMG:  Solving for p, Initial residual = 3.08765e-09, Final residual = 2.93696e-10, No Iterations 1
time step continuity errors : sum local = 1.04755e-06, global = 5.87761e-08, cumulative = 0.000184497
ExecutionTime = 4213.99 s  ClockTime = 4226 s

Time = 3029

smoothSolver:  Solving for Ux, Initial residual = 0.0010533, Final residual = 4.56412e-05, No Iterations 1
smoothSolver:  Solving for Uy, Initial residual = 0.0025002, Final residual = 0.000106092, No Iterations 1
GAMG:  Solving for p, Initial residual = 1.88337e-07, Final residual = 7.70318e-09, No Iterations 1
GAMG:  Solving for p, Initial residual = 1.04518e-08, Final residual = 4.93378e-10, No Iterations 3
GAMG:  Solving for p, Initial residual = 3.18316e-09, Final residual = 2.90999e-10, No Iterations 1
time step continuity errors : sum local = 1.03818e-06, global = 6.25235e-08, cumulative = 0.00018456
ExecutionTime = 4214.99 s  ClockTime = 4227 s

Time = 3030

smoothSolver:  Solving for Ux, Initial residual = 0.00105422, Final residual = 4.58662e-05, No Iterations 1
smoothSolver:  Solving for Uy, Initial residual = 0.00250207, Final residual = 0.00010646, No Iterations 1
GAMG:  Solving for p, Initial residual = 1.90017e-07, Final residual = 7.77423e-09, No Iterations 1
GAMG:  Solving for p, Initial residual = 1.06469e-08, Final residual = 1.04002e-09, No Iterations 2
GAMG:  Solving for p, Initial residual = 3.26639e-09, Final residual = 2.46255e-10, No Iterations 2
time step continuity errors : sum local = 8.78476e-07, global = 6.10055e-08, cumulative = 0.000184621
ExecutionTime = 4215.93 s  ClockTime = 4228 s

Time = 3031

smoothSolver:  Solving for Ux, Initial residual = 0.00105657, Final residual = 4.58724e-05, No Iterations 1
smoothSolver:  Solving for Uy, Initial residual = 0.00250343, Final residual = 0.000106602, No Iterations 1
GAMG:  Solving for p, Initial residual = 2.18464e-07, Final residual = 7.786e-09, No Iterations 1
GAMG:  Solving for p, Initial residual = 1.09663e-08, Final residual = 9.83233e-10, No Iterations 2
GAMG:  Solving for p, Initial residual = 3.24723e-09, Final residual = 2.29979e-10, No Iterations 2
time step continuity errors : sum local = 8.20285e-07, global = 5.02234e-08, cumulative = 0.000184671
ExecutionTime = 4217.39 s  ClockTime = 4229 s

Time = 3032

smoothSolver:  Solving for Ux, Initial residual = 0.00105772, Final residual = 4.5764e-05, No Iterations 1
smoothSolver:  Solving for Uy, Initial residual = 0.0025054, Final residual = 0.000106666, No Iterations 1
GAMG:  Solving for p, Initial residual = 2.0646e-07, Final residual = 7.77731e-09, No Iterations 1
GAMG:  Solving for p, Initial residual = 1.099e-08, Final residual = 4.9933e-10, No Iterations 3
GAMG:  Solving for p, Initial residual = 3.02192e-09, Final residual = 2.73969e-10, No Iterations 1
time step continuity errors : sum local = 9.7756e-07, global = 5.15979e-08, cumulative = 0.000184722
ExecutionTime = 4218.94 s  ClockTime = 4231 s

Time = 3033

smoothSolver:  Solving for Ux, Initial residual = 0.00105587, Final residual = 4.52085e-05, No Iterations 1
smoothSolver:  Solving for Uy, Initial residual = 0.00250771, Final residual = 0.000106252, No Iterations 1
GAMG:  Solving for p, Initial residual = 1.91742e-07, Final residual = 7.53272e-09, No Iterations 1
GAMG:  Solving for p, Initial residual = 1.04157e-08, Final residual = 5.00093e-10, No Iterations 3
GAMG:  Solving for p, Initial residual = 3.16626e-09, Final residual = 2.89303e-10, No Iterations 1
time step continuity errors : sum local = 1.03273e-06, global = 6.73296e-08, cumulative = 0.00018479
ExecutionTime = 4220.41 s  ClockTime = 4232 s

Time = 3034

smoothSolver:  Solving for Ux, Initial residual = 0.00105596, Final residual = 4.46055e-05, No Iterations 1
smoothSolver:  Solving for Uy, Initial residual = 0.00250919, Final residual = 0.000105847, No Iterations 1
GAMG:  Solving for p, Initial residual = 1.99316e-07, Final residual = 7.86588e-09, No Iterations 1
GAMG:  Solving for p, Initial residual = 1.13161e-08, Final residual = 1.10983e-09, No Iterations 2
GAMG:  Solving for p, Initial residual = 3.4141e-09, Final residual = 2.76453e-10, No Iterations 2
time step continuity errors : sum local = 9.87104e-07, global = 7.27228e-08, cumulative = 0.000184862
ExecutionTime = 4221.35 s  ClockTime = 4233 s

Time = 3035

smoothSolver:  Solving for Ux, Initial residual = 0.00105699, Final residual = 4.4356e-05, No Iterations 1
smoothSolver:  Solving for Uy, Initial residual = 0.00251142, Final residual = 0.000105273, No Iterations 1
GAMG:  Solving for p, Initial residual = 2.11397e-07, Final residual = 8.11084e-09, No Iterations 1
GAMG:  Solving for p, Initial residual = 1.11495e-08, Final residual = 1.06437e-09, No Iterations 2
GAMG:  Solving for p, Initial residual = 3.3116e-09, Final residual = 2.56941e-10, No Iterations 2
time step continuity errors : sum local = 9.1809e-07, global = 6.21294e-08, cumulative = 0.000184925
ExecutionTime = 4222.28 s  ClockTime = 4234 s

Time = 3036

smoothSolver:  Solving for Ux, Initial residual = 0.00105851, Final residual = 4.4603e-05, No Iterations 1
smoothSolver:  Solving for Uy, Initial residual = 0.00251224, Final residual = 0.00010531, No Iterations 1
GAMG:  Solving for p, Initial residual = 2.08387e-07, Final residual = 7.7676e-09, No Iterations 1
GAMG:  Solving for p, Initial residual = 1.12073e-08, Final residual = 1.03363e-09, No Iterations 2
GAMG:  Solving for p, Initial residual = 3.08295e-09, Final residual = 2.16153e-10, No Iterations 2
time step continuity errors : sum local = 7.72528e-07, global = 5.49176e-08, cumulative = 0.00018498
ExecutionTime = 4223.78 s  ClockTime = 4236 s

Time = 3037

