/*---------------------------------------------------------------------------*\
| =========                 |                                                 |
| \\      /  F ield         | OpenFOAM: The Open Source CFD Toolbox           |
|  \\    /   O peration     | Version:  2412                                  |
|   \\  /    A nd           | Website:  www.openfoam.com                      |
|    \\/     M anipulation  |                                                 |
\*---------------------------------------------------------------------------*/
Build  : _2c4871ff-20250317 OPENFOAM=2412 version=2412
Arch   : "LSB;label=32;scalar=64"
Exec   : checkMesh
Date   : Apr 23 2025
Time   : 13:47:52
Host   : SOSA-LAPTOP
PID    : 159600
I/O    : uncollated
Case   : /home/solim/OpenFOAM/solim-v2412/run/bellmouth-2D-simulation/outputs/ELL-2-2-30-30-10-5
nProcs : 1
trapFpe: Floating point exception trapping enabled (FOAM_SIGFPE).
fileModificationChecking : Monitoring run-time modified files using timeStampMaster (fileModificationSkew 5, maxFileModificationPolls 20)
allowSystemOperations : Allowing user-supplied system call operations

// * * * * * * * * * * * * * * * * * * * * * * * * * * * * * * * * * * * * * //
Create time

Create mesh for time = 0

Check mesh...

Time = 0

Mesh stats 
    points:           395010
    internal points:  0
    faces:            1279454
    internal faces:   556136
    cells:            360650
    faces per cell:   5.08967
    boundary patches: 5
    point zones:      0
    face zones:       0
    cell zones:       1

Overall number of cells of each type:
    hexahedra:     32340
    prisms:        328310
    wedges:        0
    pyramids:      0
    tet wedges:    0
    tetrahedra:    0
    polyhedra:     0

Checking topology...
    Boundary definition OK.
    Cell to face addressing OK.
    Point usage OK.
    Upper triangular ordering OK.
    Face vertices OK.
    Number of regions: 1 (OK).

Checking patch topology for multiply connected surfaces...
    Patch               Faces    Points     Surface topology
    frontAndBack        721300   395010   ok (non-closed singly connected)  
    symmetry            359      720      ok (non-closed singly connected)  
    outlet              72       146      ok (non-closed singly connected)  
    wall                1155     2312     ok (non-closed singly connected)  
    inlet               432      866      ok (non-closed singly connected)  
    ".*"                723318   395010   ok (closed singly connected)      


Checking faceZone topology for multiply connected surfaces...
    No faceZones found.

Checking basic cellZone addressing...
    CellZone            Cells        Points       Volume       BoundingBox
    internal            360650       395010       624.997      (0 0 0) (25 25 1)

Checking basic pointZone addressing...
    No pointZones found.

Checking geometry...
    Overall domain bounding box (0 0 0) (25 25 1)
    Mesh has 2 geometric (non-empty/wedge) directions (1 1 0)
    Mesh has 2 solution (non-empty) directions (1 1 0)
    All edges aligned with or perpendicular to non-empty directions.
    Boundary openness (-1.82005e-17 0 -3.63499e-27) OK.
    Max cell openness = 8.63117e-16 OK.
    Max aspect ratio = 20.0004 OK.
    Minimum face area = 4.87617e-08. Maximum face area = 1.28333.  Face area magnitudes OK.
    Min volume = 4.87617e-08. Max volume = 0.600432.  Total volume = 624.997.  Cell volumes OK.
    Mesh non-orthogonality Max: 34.3863 average: 2.62074
    Non-orthogonality check OK.
    Face pyramids OK.
    Max skewness = 0.560282 OK.
    Coupled point location match (average 0) OK.

Mesh OK.

End

